butane.xyz
 OpenBabel06041914463D

 14 13  0  0  0  0  0  0  0  0999 V2000
    0.0000   -0.1377    1.9339 C   0  0  0  0  0  0  0  0  0  0  0  0
    0.0000    0.5242    0.5591 C   0  0  0  0  0  0  0  0  0  0  0  0
    0.0000   -0.5242   -0.5591 C   0  0  0  0  0  0  0  0  0  0  0  0
    0.0000    0.1377   -1.9339 C   0  0  0  0  0  0  0  0  0  0  0  0
    0.0000    0.6434    2.7231 H   0  0  0  0  0  0  0  0  0  0  0  0
    0.9055   -0.7691    2.0585 H   0  0  0  0  0  0  0  0  0  0  0  0
   -0.9055   -0.7691    2.0585 H   0  0  0  0  0  0  0  0  0  0  0  0
    0.9037    1.1659    0.4698 H   0  0  0  0  0  0  0  0  0  0  0  0
   -0.9037    1.1659    0.4698 H   0  0  0  0  0  0  0  0  0  0  0  0
   -0.9037   -1.1659   -0.4698 H   0  0  0  0  0  0  0  0  0  0  0  0
    0.9037   -1.1659   -0.4698 H   0  0  0  0  0  0  0  0  0  0  0  0
   -0.9055    0.7691   -2.0585 H   0  0  0  0  0  0  0  0  0  0  0  0
    0.0000   -0.6434   -2.7231 H   0  0  0  0  0  0  0  0  0  0  0  0
    0.9055    0.7691   -2.0585 H   0  0  0  0  0  0  0  0  0  0  0  0
  1  7  1  0  0  0  0
  1  6  1  0  0  0  0
  1  5  1  0  0  0  0
  2  1  1  0  0  0  0
  3 11  1  0  0  0  0
  3 10  1  0  0  0  0
  3  2  1  0  0  0  0
  4  3  1  0  0  0  0
  8  2  1  0  0  0  0
  9  2  1  0  0  0  0
 12  4  1  0  0  0  0
 13  4  1  0  0  0  0
 14  4  1  0  0  0  0
M  END
$$$$
hexane.xyz
 OpenBabel06041914473D

 20 19  0  0  0  0  0  0  0  0999 V2000
    0.0000    0.2247    3.1761 C   0  0  0  0  0  0  0  0  0  0  0  0
    0.0000   -0.5540    1.8638 C   0  0  0  0  0  0  0  0  0  0  0  0
    0.0000    0.3930    0.6582 C   0  0  0  0  0  0  0  0  0  0  0  0
    0.0000   -0.3930   -0.6582 C   0  0  0  0  0  0  0  0  0  0  0  0
    0.0000    0.5540   -1.8638 C   0  0  0  0  0  0  0  0  0  0  0  0
    0.0000   -0.2247   -3.1761 C   0  0  0  0  0  0  0  0  0  0  0  0
    0.0000   -0.4849    4.0301 H   0  0  0  0  0  0  0  0  0  0  0  0
   -0.9055    0.8646    3.2454 H   0  0  0  0  0  0  0  0  0  0  0  0
    0.9055    0.8646    3.2454 H   0  0  0  0  0  0  0  0  0  0  0  0
   -0.9036   -1.2010    1.8309 H   0  0  0  0  0  0  0  0  0  0  0  0
    0.9036   -1.2010    1.8309 H   0  0  0  0  0  0  0  0  0  0  0  0
    0.9044    1.0396    0.6996 H   0  0  0  0  0  0  0  0  0  0  0  0
   -0.9044    1.0396    0.6996 H   0  0  0  0  0  0  0  0  0  0  0  0
   -0.9044   -1.0396   -0.6996 H   0  0  0  0  0  0  0  0  0  0  0  0
    0.9044   -1.0396   -0.6996 H   0  0  0  0  0  0  0  0  0  0  0  0
    0.9036    1.2010   -1.8309 H   0  0  0  0  0  0  0  0  0  0  0  0
   -0.9036    1.2010   -1.8309 H   0  0  0  0  0  0  0  0  0  0  0  0
    0.9055   -0.8646   -3.2454 H   0  0  0  0  0  0  0  0  0  0  0  0
    0.0000    0.4849   -4.0301 H   0  0  0  0  0  0  0  0  0  0  0  0
   -0.9055   -0.8646   -3.2454 H   0  0  0  0  0  0  0  0  0  0  0  0
  1  9  1  0  0  0  0
  1  8  1  0  0  0  0
  1  7  1  0  0  0  0
  2  1  1  0  0  0  0
  3 12  1  0  0  0  0
  3 13  1  0  0  0  0
  3  2  1  0  0  0  0
  4  3  1  0  0  0  0
  5 17  1  0  0  0  0
  5 16  1  0  0  0  0
  5  4  1  0  0  0  0
  6  5  1  0  0  0  0
 10  2  1  0  0  0  0
 11  2  1  0  0  0  0
 14  4  1  0  0  0  0
 15  4  1  0  0  0  0
 18  6  1  0  0  0  0
 19  6  1  0  0  0  0
 20  6  1  0  0  0  0
M  END
$$$$
octane.xyz
 OpenBabel06041914483D

 26 25  0  0  0  0  0  0  0  0999 V2000
    0.0000   -0.2704   -4.4316 C   0  0  0  0  0  0  0  0  0  0  0  0
    0.0000    0.5452   -3.1419 C   0  0  0  0  0  0  0  0  0  0  0  0
    0.0000   -0.3671   -1.9100 C   0  0  0  0  0  0  0  0  0  0  0  0
    0.0000    0.4560   -0.6163 C   0  0  0  0  0  0  0  0  0  0  0  0
    0.0000   -0.4560    0.6163 C   0  0  0  0  0  0  0  0  0  0  0  0
    0.0000    0.3671    1.9100 C   0  0  0  0  0  0  0  0  0  0  0  0
    0.0000   -0.5452    3.1419 C   0  0  0  0  0  0  0  0  0  0  0  0
    0.0000    0.2704    4.4316 C   0  0  0  0  0  0  0  0  0  0  0  0
    0.0000    0.4148   -5.3054 H   0  0  0  0  0  0  0  0  0  0  0  0
   -0.9055   -0.9120   -4.4827 H   0  0  0  0  0  0  0  0  0  0  0  0
    0.9055   -0.9120   -4.4827 H   0  0  0  0  0  0  0  0  0  0  0  0
   -0.9036    1.1930   -3.1273 H   0  0  0  0  0  0  0  0  0  0  0  0
    0.9036    1.1930   -3.1273 H   0  0  0  0  0  0  0  0  0  0  0  0
    0.9044   -1.0146   -1.9330 H   0  0  0  0  0  0  0  0  0  0  0  0
   -0.9044   -1.0146   -1.9330 H   0  0  0  0  0  0  0  0  0  0  0  0
   -0.9044    1.1035   -0.5936 H   0  0  0  0  0  0  0  0  0  0  0  0
    0.9044    1.1035   -0.5936 H   0  0  0  0  0  0  0  0  0  0  0  0
    0.9044   -1.1035    0.5936 H   0  0  0  0  0  0  0  0  0  0  0  0
   -0.9044   -1.1035    0.5936 H   0  0  0  0  0  0  0  0  0  0  0  0
   -0.9044    1.0146    1.9330 H   0  0  0  0  0  0  0  0  0  0  0  0
    0.9044    1.0146    1.9330 H   0  0  0  0  0  0  0  0  0  0  0  0
    0.9036   -1.1930    3.1273 H   0  0  0  0  0  0  0  0  0  0  0  0
   -0.9036   -1.1930    3.1273 H   0  0  0  0  0  0  0  0  0  0  0  0
    0.9055    0.9120    4.4827 H   0  0  0  0  0  0  0  0  0  0  0  0
    0.0000   -0.4148    5.3054 H   0  0  0  0  0  0  0  0  0  0  0  0
   -0.9055    0.9120    4.4827 H   0  0  0  0  0  0  0  0  0  0  0  0
  1  2  1  0  0  0  0
  2 13  1  0  0  0  0
  2 12  1  0  0  0  0
  2  3  1  0  0  0  0
  3  4  1  0  0  0  0
  4 17  1  0  0  0  0
  4 16  1  0  0  0  0
  4  5  1  0  0  0  0
  5  6  1  0  0  0  0
  6 21  1  0  0  0  0
  6 20  1  0  0  0  0
  6  7  1  0  0  0  0
  7  8  1  0  0  0  0
  8 24  1  0  0  0  0
  8 26  1  0  0  0  0
  8 25  1  0  0  0  0
  9  1  1  0  0  0  0
 10  1  1  0  0  0  0
 11  1  1  0  0  0  0
 14  3  1  0  0  0  0
 15  3  1  0  0  0  0
 18  5  1  0  0  0  0
 19  5  1  0  0  0  0
 22  7  1  0  0  0  0
 23  7  1  0  0  0  0
M  END
$$$$
decane.xyz
 OpenBabel06041914483D

 32 31  0  0  0  0  0  0  0  0999 V2000
    0.0000   -0.2988   -5.6913 C   0  0  0  0  0  0  0  0  0  0  0  0
    0.0000    0.5332   -4.4122 C   0  0  0  0  0  0  0  0  0  0  0  0
    0.0000   -0.3633   -3.1687 C   0  0  0  0  0  0  0  0  0  0  0  0
    0.0000    0.4763   -1.8857 C   0  0  0  0  0  0  0  0  0  0  0  0
    0.0000   -0.4198   -0.6415 C   0  0  0  0  0  0  0  0  0  0  0  0
    0.0000    0.4198    0.6415 C   0  0  0  0  0  0  0  0  0  0  0  0
    0.0000   -0.4763    1.8857 C   0  0  0  0  0  0  0  0  0  0  0  0
    0.0000    0.3633    3.1687 C   0  0  0  0  0  0  0  0  0  0  0  0
    0.0000   -0.5332    4.4122 C   0  0  0  0  0  0  0  0  0  0  0  0
    0.0000    0.2988    5.6913 C   0  0  0  0  0  0  0  0  0  0  0  0
    0.0000    0.3751   -6.5738 H   0  0  0  0  0  0  0  0  0  0  0  0
   -0.9055   -0.9410   -5.7343 H   0  0  0  0  0  0  0  0  0  0  0  0
    0.9055   -0.9410   -5.7343 H   0  0  0  0  0  0  0  0  0  0  0  0
   -0.9036    1.1811   -4.4059 H   0  0  0  0  0  0  0  0  0  0  0  0
    0.9036    1.1811   -4.4059 H   0  0  0  0  0  0  0  0  0  0  0  0
    0.9044   -1.0110   -3.1835 H   0  0  0  0  0  0  0  0  0  0  0  0
   -0.9044   -1.0110   -3.1835 H   0  0  0  0  0  0  0  0  0  0  0  0
   -0.9044    1.1241   -1.8713 H   0  0  0  0  0  0  0  0  0  0  0  0
    0.9044    1.1241   -1.8713 H   0  0  0  0  0  0  0  0  0  0  0  0
    0.9043   -1.0676   -0.6560 H   0  0  0  0  0  0  0  0  0  0  0  0
   -0.9043   -1.0676   -0.6560 H   0  0  0  0  0  0  0  0  0  0  0  0
   -0.9043    1.0676    0.6560 H   0  0  0  0  0  0  0  0  0  0  0  0
    0.9043    1.0676    0.6560 H   0  0  0  0  0  0  0  0  0  0  0  0
    0.9044   -1.1241    1.8713 H   0  0  0  0  0  0  0  0  0  0  0  0
   -0.9044   -1.1241    1.8713 H   0  0  0  0  0  0  0  0  0  0  0  0
   -0.9044    1.0110    3.1835 H   0  0  0  0  0  0  0  0  0  0  0  0
    0.9044    1.0110    3.1835 H   0  0  0  0  0  0  0  0  0  0  0  0
    0.9036   -1.1811    4.4059 H   0  0  0  0  0  0  0  0  0  0  0  0
   -0.9036   -1.1811    4.4059 H   0  0  0  0  0  0  0  0  0  0  0  0
    0.9055    0.9410    5.7343 H   0  0  0  0  0  0  0  0  0  0  0  0
    0.0000   -0.3751    6.5738 H   0  0  0  0  0  0  0  0  0  0  0  0
   -0.9055    0.9410    5.7343 H   0  0  0  0  0  0  0  0  0  0  0  0
  1  2  1  0  0  0  0
  2 15  1  0  0  0  0
  2 14  1  0  0  0  0
  2  3  1  0  0  0  0
  3  4  1  0  0  0  0
  4 18  1  0  0  0  0
  4 19  1  0  0  0  0
  4  5  1  0  0  0  0
  5  6  1  0  0  0  0
  6 23  1  0  0  0  0
  6 22  1  0  0  0  0
  6  7  1  0  0  0  0
  7  8  1  0  0  0  0
  8 27  1  0  0  0  0
  8 26  1  0  0  0  0
  8  9  1  0  0  0  0
  9 10  1  0  0  0  0
 10 30  1  0  0  0  0
 10 32  1  0  0  0  0
 10 31  1  0  0  0  0
 11  1  1  0  0  0  0
 12  1  1  0  0  0  0
 13  1  1  0  0  0  0
 16  3  1  0  0  0  0
 17  3  1  0  0  0  0
 20  5  1  0  0  0  0
 21  5  1  0  0  0  0
 24  7  1  0  0  0  0
 25  7  1  0  0  0  0
 28  9  1  0  0  0  0
 29  9  1  0  0  0  0
M  END
$$$$