
     RDKit          3D

 47 46  0  0  0  0  0  0  0  0999 V2000
   -2.8616    0.1742    1.6910 C   0  0  0  0  0  0  0  0  0  0  0  0
   -2.7965   -0.0367    0.1753 C   0  0  0  0  0  0  0  0  0  0  0  0
   -3.8566    0.8104   -0.5632 C   0  0  0  0  0  0  0  0  0  0  0  0
   -5.2993    0.4264   -0.2241 C   0  0  0  0  0  0  0  0  0  0  0  0
   -6.2930    1.1909   -1.0863 C   0  0  0  0  0  0  0  0  0  0  0  0
   -1.3991    0.3063   -0.3872 C   0  0  0  0  0  0  0  0  0  0  0  0
   -0.2805   -0.6000    0.1404 C   0  0  0  0  0  0  0  0  0  0  0  0
    1.0465   -0.3075   -0.5703 C   0  0  0  0  0  0  0  0  0  0  0  0
    2.2452   -1.0923    0.0124 C   0  0  0  0  0  0  0  0  0  0  0  0
    3.5698   -0.6541   -0.6606 C   0  0  0  0  0  0  0  0  0  0  0  0
    4.3745    0.3892    0.1282 C   0  0  0  0  0  0  0  0  0  0  0  0
    3.6791    1.7379    0.2970 C   0  0  0  0  0  0  0  0  0  0  0  0
    4.6007    2.7600    0.9459 C   0  0  0  0  0  0  0  0  0  0  0  0
    2.0650   -2.6257   -0.0857 C   0  0  0  0  0  0  0  0  0  0  0  0
    1.8653   -3.1649   -1.4961 C   0  0  0  0  0  0  0  0  0  0  0  0
   -2.1325   -0.4516    2.2139 H   0  0  0  0  0  0  0  0  0  0  0  0
   -2.6638    1.2189    1.9533 H   0  0  0  0  0  0  0  0  0  0  0  0
   -3.8429   -0.0969    2.0913 H   0  0  0  0  0  0  0  0  0  0  0  0
   -2.9989   -1.0956   -0.0322 H   0  0  0  0  0  0  0  0  0  0  0  0
   -3.7006    1.8740   -0.3416 H   0  0  0  0  0  0  0  0  0  0  0  0
   -3.7124    0.6915   -1.6449 H   0  0  0  0  0  0  0  0  0  0  0  0
   -5.4450   -0.6491   -0.3768 H   0  0  0  0  0  0  0  0  0  0  0  0
   -5.5165    0.6416    0.8271 H   0  0  0  0  0  0  0  0  0  0  0  0
   -6.1411    0.9728   -2.1482 H   0  0  0  0  0  0  0  0  0  0  0  0
   -7.3175    0.9075   -0.8253 H   0  0  0  0  0  0  0  0  0  0  0  0
   -6.1906    2.2707   -0.9385 H   0  0  0  0  0  0  0  0  0  0  0  0
   -1.1569    1.3530   -0.1624 H   0  0  0  0  0  0  0  0  0  0  0  0
   -1.4275    0.2186   -1.4811 H   0  0  0  0  0  0  0  0  0  0  0  0
   -0.5680   -1.6455   -0.0132 H   0  0  0  0  0  0  0  0  0  0  0  0
   -0.1472   -0.4465    1.2164 H   0  0  0  0  0  0  0  0  0  0  0  0
    1.2437    0.7670   -0.4966 H   0  0  0  0  0  0  0  0  0  0  0  0
    0.9413   -0.5174   -1.6415 H   0  0  0  0  0  0  0  0  0  0  0  0
    2.3117   -0.8618    1.0843 H   0  0  0  0  0  0  0  0  0  0  0  0
    3.3811   -0.2817   -1.6751 H   0  0  0  0  0  0  0  0  0  0  0  0
    4.2298   -1.5236   -0.7755 H   0  0  0  0  0  0  0  0  0  0  0  0
    5.3269    0.5428   -0.3953 H   0  0  0  0  0  0  0  0  0  0  0  0
    4.6262   -0.0190    1.1150 H   0  0  0  0  0  0  0  0  0  0  0  0
    3.3545    2.1170   -0.6786 H   0  0  0  0  0  0  0  0  0  0  0  0
    2.7894    1.6278    0.9256 H   0  0  0  0  0  0  0  0  0  0  0  0
    4.9252    2.4227    1.9355 H   0  0  0  0  0  0  0  0  0  0  0  0
    4.0812    3.7159    1.0659 H   0  0  0  0  0  0  0  0  0  0  0  0
    5.4905    2.9322    0.3321 H   0  0  0  0  0  0  0  0  0  0  0  0
    1.2182   -2.9395    0.5356 H   0  0  0  0  0  0  0  0  0  0  0  0
    2.9457   -3.1131    0.3520 H   0  0  0  0  0  0  0  0  0  0  0  0
    0.9260   -2.8121   -1.9316 H   0  0  0  0  0  0  0  0  0  0  0  0
    2.6855   -2.8755   -2.1594 H   0  0  0  0  0  0  0  0  0  0  0  0
    1.8248   -4.2589   -1.4732 H   0  0  0  0  0  0  0  0  0  0  0  0
  1  2  1  0
  2  3  1  0
  3  4  1  0
  4  5  1  0
  2  6  1  0
  6  7  1  0
  7  8  1  0
  8  9  1  0
  9 10  1  0
 10 11  1  0
 11 12  1  0
 12 13  1  0
  9 14  1  0
 14 15  1  0
  1 16  1  0
  1 17  1  0
  1 18  1  0
  2 19  1  0
  3 20  1  0
  3 21  1  0
  4 22  1  0
  4 23  1  0
  5 24  1  0
  5 25  1  0
  5 26  1  0
  6 27  1  0
  6 28  1  0
  7 29  1  0
  7 30  1  0
  8 31  1  0
  8 32  1  0
  9 33  1  0
 10 34  1  0
 10 35  1  0
 11 36  1  0
 11 37  1  0
 12 38  1  0
 12 39  1  0
 13 40  1  0
 13 41  1  0
 13 42  1  0
 14 43  1  0
 14 44  1  0
 15 45  1  0
 15 46  1  0
 15 47  1  0
M  END
