
 OpenBabel08291917593D

 46 47  0  0  1  0  0  0  0  0999 V2000
    0.3080    2.3747    1.6731 C   0  0  0  0  0  0  0  0  0  0  0  0
    0.5535    0.9940    0.9866 C   0  0  2  0  0  0  0  0  0  0  0  0
    0.9592    2.3601    2.5814 H   0  0  0  0  0  0  0  0  0  0  0  0
    0.7681    3.1457    1.0070 H   0  0  0  0  0  0  0  0  0  0  0  0
   -0.3395   -0.1268    1.6314 C   0  0  1  0  0  0  0  0  0  0  0  0
    0.3386    1.0764   -0.0854 H   0  0  0  0  0  0  0  0  0  0  0  0
    0.2917   -1.0178    1.7722 H   0  0  0  0  0  0  0  0  0  0  0  0
   -1.0178    2.5796    1.9330 O   0  0  0  0  0  0  0  0  0  0  0  0
    1.9742    0.6960    1.1270 O   0  0  0  0  0  0  0  0  0  0  0  0
    2.5859   -0.1391    0.2681 C   0  0  0  0  0  0  0  0  0  0  0  0
    4.0005   -0.2431    0.4028 C   0  0  0  0  0  0  0  0  0  0  0  0
    1.9586   -0.8974   -0.7269 C   0  0  0  0  0  0  0  0  0  0  0  0
    4.7293   -1.0732   -0.4448 C   0  0  0  0  0  0  0  0  0  0  0  0
    2.7028   -1.7287   -1.5748 C   0  0  0  0  0  0  0  0  0  0  0  0
    0.8810   -0.8536   -0.8313 H   0  0  0  0  0  0  0  0  0  0  0  0
    4.0812   -1.8195   -1.4414 C   0  0  0  0  0  0  0  0  0  0  0  0
    5.8069   -1.1458   -0.3402 H   0  0  0  0  0  0  0  0  0  0  0  0
    2.1841   -2.3063   -2.3364 H   0  0  0  0  0  0  0  0  0  0  0  0
    4.6643   -2.4633   -2.0955 H   0  0  0  0  0  0  0  0  0  0  0  0
    4.5487    0.5205    1.4010 O   0  0  0  0  0  0  0  0  0  0  0  0
    5.9426    0.4530    1.5881 C   0  0  0  0  0  0  0  0  0  0  0  0
    6.4957    0.7943    0.6997 H   0  0  0  0  0  0  0  0  0  0  0  0
    6.1673    1.1178    2.4260 H   0  0  0  0  0  0  0  0  0  0  0  0
    6.2765   -0.5658    1.8373 H   0  0  0  0  0  0  0  0  0  0  0  0
   -0.8236    0.2603    2.8957 O   0  0  0  0  0  0  0  0  0  0  0  0
   -1.0922    1.2495    2.7165 H   0  0  0  0  0  0  0  0  0  0  0  0
   -1.4865   -0.5130    0.6910 C   0  0  0  0  0  0  0  0  0  0  0  0
   -1.6604   -1.8066    0.2107 C   0  0  0  0  0  0  0  0  0  0  0  0
   -2.4180    0.4774    0.3247 C   0  0  0  0  0  0  0  0  0  0  0  0
   -2.7429   -2.1222   -0.6286 C   0  0  0  0  0  0  0  0  0  0  0  0
   -0.9583   -2.5908    0.4877 H   0  0  0  0  0  0  0  0  0  0  0  0
   -3.4911    0.1779   -0.5022 C   0  0  0  0  0  0  0  0  0  0  0  0
   -2.2226    1.4792    0.7232 H   0  0  0  0  0  0  0  0  0  0  0  0
   -3.6616   -1.1417   -0.9903 C   0  0  0  0  0  0  0  0  0  0  0  0
   -2.8586   -3.1399   -0.9880 H   0  0  0  0  0  0  0  0  0  0  0  0
   -4.4328    1.0908   -0.9062 O   0  0  0  0  0  0  0  0  0  0  0  0
   -4.7548   -1.3461   -1.8057 O   0  0  0  0  0  0  0  0  0  0  0  0
   -4.2913    2.4079   -0.3960 C   0  0  0  0  0  0  0  0  0  0  0  0
   -5.1218    2.9808   -0.8184 H   0  0  0  0  0  0  0  0  0  0  0  0
   -4.3458    2.4271    0.6998 H   0  0  0  0  0  0  0  0  0  0  0  0
   -3.3377    2.8615   -0.6936 H   0  0  0  0  0  0  0  0  0  0  0  0
   -4.9391   -2.6415   -2.3245 C   0  0  0  0  0  0  0  0  0  0  0  0
   -5.8393   -2.5971   -2.9442 H   0  0  0  0  0  0  0  0  0  0  0  0
   -4.0899   -2.9621   -2.9472 H   0  0  0  0  0  0  0  0  0  0  0  0
   -5.0875   -3.3884   -1.5297 H   0  0  0  0  0  0  0  0  0  0  0  0
   -1.5144    2.5792    1.0998 H   0  0  0  0  0  0  0  0  0  0  0  0
  1  8  1  0  0  0  0
  1  3  1  0  0  0  0
  2  6  1  6  0  0  0
  2  9  1  0  0  0  0
  2  5  1  0  0  0  0
  2  1  1  0  0  0  0
  4  1  1  0  0  0  0
  5  7  1  1  0  0  0
  5 25  1  0  0  0  0
 10 11  1  0  0  0  0
 10  9  1  0  0  0  0
 11 20  1  0  0  0  0
 12 10  2  0  0  0  0
 13 17  1  0  0  0  0
 13 11  2  0  0  0  0
 14 16  2  0  0  0  0
 14 12  1  0  0  0  0
 15 12  1  0  0  0  0
 16 13  1  0  0  0  0
 18 14  1  0  0  0  0
 19 16  1  0  0  0  0
 20 21  1  0  0  0  0
 21 24  1  0  0  0  0
 21 23  1  0  0  0  0
 22 21  1  0  0  0  0
 26 25  1  0  0  0  0
 27  5  1  0  0  0  0
 28 31  1  0  0  0  0
 28 27  2  0  0  0  0
 29 27  1  0  0  0  0
 29 33  1  0  0  0  0
 30 28  1  0  0  0  0
 32 29  2  0  0  0  0
 34 30  2  0  0  0  0
 34 32  1  0  0  0  0
 35 30  1  0  0  0  0
 36 32  1  0  0  0  0
 36 38  1  0  0  0  0
 37 34  1  0  0  0  0
 38 40  1  0  0  0  0
 39 38  1  0  0  0  0
 41 38  1  0  0  0  0
 42 37  1  0  0  0  0
 42 45  1  0  0  0  0
 43 42  1  0  0  0  0
 44 42  1  0  0  0  0
 46  8  1  0  0  0  0
M  END
