
     RDKit          3D

 75 77  0  0  0  0  0  0  0  0999 V2000
    7.6852   -2.6333   -0.0059 H   0  0  0  0  0  0  0  0  0  0  0  0
    7.3595   -3.0820   -0.8114 O   0  0  0  0  0  0  0  0  0  0  0  0
    6.0213   -3.3001   -0.6155 C   0  0  0  0  0  0  0  0  0  0  0  0
    5.4411   -2.9650    0.6149 C   0  0  0  0  0  0  0  0  0  0  0  0
    6.2769   -2.4704    1.5919 O   0  0  0  0  0  0  0  0  0  0  0  0
    5.8925   -1.2706    2.1673 C   0  0  0  0  0  0  0  0  0  0  0  0
    6.0301   -0.0569    1.4760 C   0  0  0  0  0  0  0  0  0  0  0  0
    6.5491   -0.1163    0.1995 O   0  0  0  0  0  0  0  0  0  0  0  0
    6.2024    0.8544   -0.7137 C   0  0  0  0  0  0  0  0  0  0  0  0
    4.8650    1.1173   -1.0651 C   0  0  0  0  0  0  0  0  0  0  0  0
    3.8644    0.5141   -0.3401 O   0  0  0  0  0  0  0  0  0  0  0  0
    2.7718    0.0239   -1.1054 C   0  0  0  0  0  0  0  0  0  0  0  0
    3.1174   -0.6140   -1.9289 H   0  0  0  0  0  0  0  0  0  0  0  0
    2.1451   -0.5867   -0.4421 H   0  0  0  0  0  0  0  0  0  0  0  0
    2.1457    0.8412   -1.4776 H   0  0  0  0  0  0  0  0  0  0  0  0
    4.5881    2.0352   -2.0887 C   0  0  0  0  0  0  0  0  0  0  0  0
    3.5613    2.2875   -2.3289 H   0  0  0  0  0  0  0  0  0  0  0  0
    5.6257    2.6698   -2.7964 C   0  0  0  0  0  0  0  0  0  0  0  0
    5.3442    3.6085   -3.8897 C   0  0  0  0  0  0  0  0  0  0  0  0
    5.8456    4.5764   -3.8483 H   0  0  0  0  0  0  0  0  0  0  0  0
    4.5551    3.2806   -4.9271 C   0  0  0  0  0  0  0  0  0  0  0  0
    4.1086    2.2935   -4.9639 H   0  0  0  0  0  0  0  0  0  0  0  0
    4.2334    4.1380   -6.1114 C   0  0  0  0  0  0  0  0  0  0  0  0
    4.6375    3.6740   -7.0188 H   0  0  0  0  0  0  0  0  0  0  0  0
    3.1463    4.2249   -6.2097 H   0  0  0  0  0  0  0  0  0  0  0  0
    4.7683    5.4500   -5.9815 O   0  0  0  0  0  0  0  0  0  0  0  0
    4.6627    5.8679   -6.8573 H   0  0  0  0  0  0  0  0  0  0  0  0
    6.9510    2.3996   -2.4446 C   0  0  0  0  0  0  0  0  0  0  0  0
    7.7719    2.8650   -2.9898 H   0  0  0  0  0  0  0  0  0  0  0  0
    7.2359    1.5055   -1.4060 C   0  0  0  0  0  0  0  0  0  0  0  0
    8.5632    1.2528   -1.1609 O   0  0  0  0  0  0  0  0  0  0  0  0
    8.9699    1.8298    0.0799 C   0  0  0  0  0  0  0  0  0  0  0  0
    8.6099    2.8593    0.1918 H   0  0  0  0  0  0  0  0  0  0  0  0
    8.6401    1.2200    0.9264 H   0  0  0  0  0  0  0  0  0  0  0  0
   10.0611    1.8551    0.0950 H   0  0  0  0  0  0  0  0  0  0  0  0
    5.7103    1.1439    2.1136 C   0  0  0  0  0  0  0  0  0  0  0  0
    5.8077    2.0811    1.5737 H   0  0  0  0  0  0  0  0  0  0  0  0
    5.2376    1.1499    3.4322 C   0  0  0  0  0  0  0  0  0  0  0  0
    4.8140    2.3850    4.1053 C   0  0  0  0  0  0  0  0  0  0  0  0
    3.9978    2.2868    4.8179 H   0  0  0  0  0  0  0  0  0  0  0  0
    5.3557    3.6001    3.8939 C   0  0  0  0  0  0  0  0  0  0  0  0
    6.1814    3.7078    3.1940 H   0  0  0  0  0  0  0  0  0  0  0  0
    4.9344    4.8788    4.5451 C   0  0  0  0  0  0  0  0  0  0  0  0
    5.7701    5.3012    5.1135 H   0  0  0  0  0  0  0  0  0  0  0  0
    4.6326    5.5995    3.7817 H   0  0  0  0  0  0  0  0  0  0  0  0
    3.8498    4.6727    5.4308 O   0  0  0  0  0  0  0  0  0  0  0  0
    3.6368    5.5385    5.8116 H   0  0  0  0  0  0  0  0  0  0  0  0
    5.1114   -0.0717    4.1117 C   0  0  0  0  0  0  0  0  0  0  0  0
    4.7473   -0.0512    5.1362 H   0  0  0  0  0  0  0  0  0  0  0  0
    5.4648   -1.2781    3.5019 C   0  0  0  0  0  0  0  0  0  0  0  0
    5.4196   -2.5045    4.1204 O   0  0  0  0  0  0  0  0  0  0  0  0
    5.0920   -2.5327    5.4986 C   0  0  0  0  0  0  0  0  0  0  0  0
    4.0718   -2.1736    5.6653 H   0  0  0  0  0  0  0  0  0  0  0  0
    5.8151   -1.9584    6.0903 H   0  0  0  0  0  0  0  0  0  0  0  0
    5.1296   -3.5738    5.8337 H   0  0  0  0  0  0  0  0  0  0  0  0
    4.0948   -3.2619    0.8658 C   0  0  0  0  0  0  0  0  0  0  0  0
    3.6832   -3.1042    1.8553 H   0  0  0  0  0  0  0  0  0  0  0  0
    3.3107   -3.8290   -0.1513 C   0  0  0  0  0  0  0  0  0  0  0  0
    1.9071   -4.2228    0.0390 C   0  0  0  0  0  0  0  0  0  0  0  0
    1.5400   -4.9707   -0.6578 H   0  0  0  0  0  0  0  0  0  0  0  0
    1.0559   -3.7272    0.9490 C   0  0  0  0  0  0  0  0  0  0  0  0
    1.3743   -2.9509    1.6409 H   0  0  0  0  0  0  0  0  0  0  0  0
   -0.3699   -4.1622    1.1109 C   0  0  0  0  0  0  0  0  0  0  0  0
   -0.5847   -4.3335    2.1651 H   0  0  0  0  0  0  0  0  0  0  0  0
   -1.0521   -3.4027    0.7209 H   0  0  0  0  0  0  0  0  0  0  0  0
   -0.5997   -5.3712    0.4127 O   0  0  0  0  0  0  0  0  0  0  0  0
   -1.4661   -5.7102    0.6926 H   0  0  0  0  0  0  0  0  0  0  0  0
    3.8989   -4.1028   -1.4042 C   0  0  0  0  0  0  0  0  0  0  0  0
    3.2699   -4.5404   -2.1769 H   0  0  0  0  0  0  0  0  0  0  0  0
    5.2561   -3.8663   -1.6395 C   0  0  0  0  0  0  0  0  0  0  0  0
    5.9189   -4.1848   -2.7952 O   0  0  0  0  0  0  0  0  0  0  0  0
    5.1490   -4.6760   -3.8828 C   0  0  0  0  0  0  0  0  0  0  0  0
    5.8300   -4.8798   -4.7117 H   0  0  0  0  0  0  0  0  0  0  0  0
    4.6576   -5.6181   -3.6225 H   0  0  0  0  0  0  0  0  0  0  0  0
    4.4301   -3.9291   -4.2245 H   0  0  0  0  0  0  0  0  0  0  0  0
  1  2  1  0
  2  3  1  0
  3  4  2  0
  3 70  1  0
  4  5  1  0
  4 56  1  0
  5  6  1  0
  6  7  1  0
  6 50  2  0
  7  8  1  0
  7 36  2  0
  8  9  1  0
  9 10  2  0
  9 30  1  0
 10 11  1  0
 10 16  1  0
 11 12  1  0
 12 13  1  0
 12 14  1  0
 12 15  1  0
 16 17  1  0
 16 18  2  0
 18 19  1  0
 18 28  1  0
 19 20  1  0
 19 21  2  0
 21 22  1  0
 21 23  1  0
 23 24  1  0
 23 25  1  0
 23 26  1  0
 26 27  1  0
 28 29  1  0
 28 30  2  0
 30 31  1  0
 31 32  1  0
 32 33  1  0
 32 34  1  0
 32 35  1  0
 36 37  1  0
 36 38  1  0
 38 39  1  0
 38 48  2  0
 39 40  1  0
 39 41  2  0
 41 42  1  0
 41 43  1  0
 43 44  1  0
 43 45  1  0
 43 46  1  0
 46 47  1  0
 48 49  1  0
 48 50  1  0
 50 51  1  0
 51 52  1  0
 52 53  1  0
 52 54  1  0
 52 55  1  0
 56 57  1  0
 56 58  2  0
 58 59  1  0
 58 68  1  0
 59 60  1  0
 59 61  2  0
 61 62  1  0
 61 63  1  0
 63 64  1  0
 63 65  1  0
 63 66  1  0
 66 67  1  0
 68 69  1  0
 68 70  2  0
 70 71  1  0
 71 72  1  0
 72 73  1  0
 72 74  1  0
 72 75  1  0
M  END
