
     RDKit          3D

111114  0  0  1  0  0  0  0  0999 V2000
   -1.5754   -2.4272   -6.3868 H   0  0  0  0  0  0  0  0  0  0  0  0
   -1.2743   -3.0654   -7.0586 O   0  0  0  0  0  0  0  0  0  0  0  0
   -1.2009   -4.2818   -6.3989 C   0  0  0  0  0  0  0  0  0  0  0  0
   -2.1532   -4.6093   -5.4305 C   0  0  0  0  0  0  0  0  0  0  0  0
   -3.2708   -3.8779   -5.1073 O   0  0  0  0  0  0  0  0  0  0  0  0
   -3.9947   -3.3493   -6.2249 C   0  0  0  0  0  0  0  0  0  0  0  0
   -5.0544   -3.3365   -5.9595 H   0  0  0  0  0  0  0  0  0  0  0  0
   -3.6935   -2.3141   -6.3866 H   0  0  0  0  0  0  0  0  0  0  0  0
   -3.8739   -3.9559   -7.1272 H   0  0  0  0  0  0  0  0  0  0  0  0
   -1.9408   -5.7241   -4.6091 C   0  0  0  0  0  0  0  0  0  0  0  0
   -2.6459   -5.9272   -3.8045 H   0  0  0  0  0  0  0  0  0  0  0  0
   -0.8000   -6.5176   -4.7587 C   0  0  0  0  0  0  0  0  0  0  0  0
   -0.5348   -7.6310   -3.7766 C   0  0  1  0  0  0  0  0  0  0  0  0
   -1.4492   -7.8115   -3.2015 H   0  0  0  0  0  0  0  0  0  0  0  0
   -0.2615   -8.8026   -4.5518 O   0  0  0  0  0  0  0  0  0  0  0  0
   -0.9318   -9.4619   -4.3109 H   0  0  0  0  0  0  0  0  0  0  0  0
    0.6438   -7.3677   -2.8053 C   0  0  1  0  0  0  0  0  0  0  0  0
    1.5823   -7.4068   -3.3635 H   0  0  0  0  0  0  0  0  0  0  0  0
    0.4661   -6.1510   -2.0527 O   0  0  0  0  0  0  0  0  0  0  0  0
    1.0012   -4.9783   -2.5221 C   0  0  0  0  0  0  0  0  0  0  0  0
    0.1968   -3.8261   -2.4639 C   0  0  0  0  0  0  0  0  0  0  0  0
   -1.0900   -3.7588   -1.9892 O   0  0  0  0  0  0  0  0  0  0  0  0
   -1.3818   -4.5348   -0.8390 C   0  0  0  0  0  0  0  0  0  0  0  0
   -1.7298   -5.5287   -1.1262 H   0  0  0  0  0  0  0  0  0  0  0  0
   -0.5303   -4.5914   -0.1473 H   0  0  0  0  0  0  0  0  0  0  0  0
   -2.2114   -4.0507   -0.3167 H   0  0  0  0  0  0  0  0  0  0  0  0
    0.6563   -2.6169   -3.0054 C   0  0  0  0  0  0  0  0  0  0  0  0
   -0.0143   -1.7573   -2.9766 H   0  0  0  0  0  0  0  0  0  0  0  0
    1.9323   -2.4895   -3.5694 C   0  0  0  0  0  0  0  0  0  0  0  0
    2.4053   -1.1921   -4.2217 C   0  0  1  0  0  0  0  0  0  0  0  0
    3.1294   -1.4437   -4.9892 H   0  0  0  0  0  0  0  0  0  0  0  0
    1.2603   -0.5285   -4.8072 O   0  0  0  0  0  0  0  0  0  0  0  0
    1.0044   -0.5407   -6.1467 C   0  0  0  0  0  0  0  0  0  0  0  0
    1.7350   -1.2848   -7.0820 C   0  0  0  0  0  0  0  0  0  0  0  0
    2.5340   -1.9663   -6.7886 H   0  0  0  0  0  0  0  0  0  0  0  0
    1.4024   -1.2579   -8.4410 C   0  0  0  0  0  0  0  0  0  0  0  0
    1.9648   -1.8931   -9.1220 H   0  0  0  0  0  0  0  0  0  0  0  0
    0.3137   -0.5088   -8.8816 C   0  0  0  0  0  0  0  0  0  0  0  0
   -0.1922   -0.6087  -10.2498 C   0  0  0  0  0  0  0  0  0  0  0  0
   -0.5241    0.3060  -10.7320 H   0  0  0  0  0  0  0  0  0  0  0  0
   -0.3644   -1.8192  -10.8117 C   0  0  0  0  0  0  0  0  0  0  0  0
   -0.0570   -2.7160  -10.2712 H   0  0  0  0  0  0  0  0  0  0  0  0
   -1.0484   -2.0755  -12.1017 C   0  0  0  0  0  0  0  0  0  0  0  0
   -1.4575   -1.1628  -12.5472 H   0  0  0  0  0  0  0  0  0  0  0  0
   -0.3543   -2.5393  -12.8103 H   0  0  0  0  0  0  0  0  0  0  0  0
   -2.1027   -2.9785  -11.8209 O   0  0  0  0  0  0  0  0  0  0  0  0
   -2.6492   -2.5665  -11.1297 H   0  0  0  0  0  0  0  0  0  0  0  0
   -0.3831    0.2818   -7.9712 C   0  0  0  0  0  0  0  0  0  0  0  0
   -1.2274    0.8811   -8.3048 H   0  0  0  0  0  0  0  0  0  0  0  0
   -0.0740    0.2450   -6.6036 C   0  0  0  0  0  0  0  0  0  0  0  0
   -0.9482    1.0022   -5.8708 O   0  0  0  0  0  0  0  0  0  0  0  0
   -1.1447    0.6497   -4.5081 C   0  0  0  0  0  0  0  0  0  0  0  0
   -0.3662    1.1021   -3.8952 H   0  0  0  0  0  0  0  0  0  0  0  0
   -2.0989    1.0726   -4.1889 H   0  0  0  0  0  0  0  0  0  0  0  0
   -1.2055   -0.4304   -4.3760 H   0  0  0  0  0  0  0  0  0  0  0  0
    3.0263   -0.1494   -3.2437 C   0  0  1  0  0  0  0  0  0  0  0  0
    2.1835    0.1613   -2.6017 H   0  0  0  0  0  0  0  0  0  0  0  0
    3.9759   -0.6173   -2.2843 O   0  0  0  0  0  0  0  0  0  0  0  0
    5.2119   -1.1440   -2.5030 C   0  0  0  0  0  0  0  0  0  0  0  0
    5.8260   -1.4765   -3.7148 C   0  0  0  0  0  0  0  0  0  0  0  0
    5.3121   -0.9914   -4.8888 O   0  0  0  0  0  0  0  0  0  0  0  0
    6.2167   -0.8437   -5.9762 C   0  0  0  0  0  0  0  0  0  0  0  0
    6.0223    0.1074   -6.4730 H   0  0  0  0  0  0  0  0  0  0  0  0
    6.0292   -1.6496   -6.7012 H   0  0  0  0  0  0  0  0  0  0  0  0
    7.2779   -0.8243   -5.6845 H   0  0  0  0  0  0  0  0  0  0  0  0
    6.9614   -2.3084   -3.7018 C   0  0  0  0  0  0  0  0  0  0  0  0
    7.3777   -2.7040   -4.6251 H   0  0  0  0  0  0  0  0  0  0  0  0
    7.5871   -2.6627   -2.4995 C   0  0  0  0  0  0  0  0  0  0  0  0
    8.7770   -3.5118   -2.4935 C   0  0  0  0  0  0  0  0  0  0  0  0
    9.7401   -3.0110   -2.5901 H   0  0  0  0  0  0  0  0  0  0  0  0
    8.6845   -4.8429   -2.3399 C   0  0  0  0  0  0  0  0  0  0  0  0
    7.7076   -5.2997   -2.2296 H   0  0  0  0  0  0  0  0  0  0  0  0
    9.8237   -5.8061   -2.2642 C   0  0  0  0  0  0  0  0  0  0  0  0
    9.7021   -6.4131   -1.3534 H   0  0  0  0  0  0  0  0  0  0  0  0
    9.8263   -6.4664   -3.1411 H   0  0  0  0  0  0  0  0  0  0  0  0
   11.0812   -5.1405   -2.1816 O   0  0  0  0  0  0  0  0  0  0  0  0
   11.7209   -5.8295   -1.9388 H   0  0  0  0  0  0  0  0  0  0  0  0
    7.0884   -2.1595   -1.2978 C   0  0  0  0  0  0  0  0  0  0  0  0
    7.5941   -2.3563   -0.3518 H   0  0  0  0  0  0  0  0  0  0  0  0
    5.9218   -1.3969   -1.3103 C   0  0  0  0  0  0  0  0  0  0  0  0
    5.5303   -0.9161   -0.0771 O   0  0  0  0  0  0  0  0  0  0  0  0
    5.4761    0.5170   -0.0763 C   0  0  0  0  0  0  0  0  0  0  0  0
    6.1075    0.9681   -0.8602 H   0  0  0  0  0  0  0  0  0  0  0  0
    4.4398    0.8539   -0.1816 H   0  0  0  0  0  0  0  0  0  0  0  0
    5.8368    0.8587    0.8985 H   0  0  0  0  0  0  0  0  0  0  0  0
    3.5094    1.1341   -3.9382 C   0  0  0  0  0  0  0  0  0  0  0  0
    4.5991    1.2283   -3.9169 H   0  0  0  0  0  0  0  0  0  0  0  0
    3.1597    1.2070   -4.9705 H   0  0  0  0  0  0  0  0  0  0  0  0
    3.0266    2.2947   -3.2373 O   0  0  0  0  0  0  0  0  0  0  0  0
    3.1277    3.0401   -3.8473 H   0  0  0  0  0  0  0  0  0  0  0  0
    2.7601   -3.6201   -3.5439 C   0  0  0  0  0  0  0  0  0  0  0  0
    3.7768   -3.5746   -3.9267 H   0  0  0  0  0  0  0  0  0  0  0  0
    2.3066   -4.8373   -3.0011 C   0  0  0  0  0  0  0  0  0  0  0  0
    3.2116   -5.8717   -2.9891 O   0  0  0  0  0  0  0  0  0  0  0  0
    3.8967   -5.8947   -1.7339 C   0  0  0  0  0  0  0  0  0  0  0  0
    4.3912   -4.9393   -1.5240 H   0  0  0  0  0  0  0  0  0  0  0  0
    3.2096   -6.1605   -0.9245 H   0  0  0  0  0  0  0  0  0  0  0  0
    4.6635   -6.6724   -1.7853 H   0  0  0  0  0  0  0  0  0  0  0  0
    0.6964   -8.4758   -1.7298 C   0  0  0  0  0  0  0  0  0  0  0  0
    1.4832   -8.2509   -1.0019 H   0  0  0  0  0  0  0  0  0  0  0  0
   -0.2442   -8.4860   -1.1629 H   0  0  0  0  0  0  0  0  0  0  0  0
    0.9032   -9.7792   -2.2427 O   0  0  0  0  0  0  0  0  0  0  0  0
    1.7223   -9.7531   -2.7707 H   0  0  0  0  0  0  0  0  0  0  0  0
    0.0920   -6.2258   -5.8071 C   0  0  0  0  0  0  0  0  0  0  0  0
    0.9231   -6.9091   -5.9453 H   0  0  0  0  0  0  0  0  0  0  0  0
   -0.0772   -5.0958   -6.6144 C   0  0  0  0  0  0  0  0  0  0  0  0
    0.8011   -4.6783   -7.5717 O   0  0  0  0  0  0  0  0  0  0  0  0
    2.1337   -5.1559   -7.5101 C   0  0  0  0  0  0  0  0  0  0  0  0
    2.8146   -4.2942   -7.5850 H   0  0  0  0  0  0  0  0  0  0  0  0
    2.3171   -5.7866   -8.3948 H   0  0  0  0  0  0  0  0  0  0  0  0
    2.4212   -5.6916   -6.6072 H   0  0  0  0  0  0  0  0  0  0  0  0
  1  2  1  0
  2  3  1  0
  3  4  2  0
  3106  1  0
  4  5  1  0
  4 10  1  0
  5  6  1  0
  6  7  1  0
  6  8  1  0
  6  9  1  0
 10 11  1  0
 10 12  2  0
 12 13  1  0
 12104  1  0
 13 14  1  1
 13 15  1  0
 13 17  1  0
 15 16  1  0
 17 18  1  6
 17 19  1  0
 17 99  1  0
 19 20  1  0
 20 21  2  0
 20 93  1  0
 21 22  1  0
 21 27  1  0
 22 23  1  0
 23 24  1  0
 23 25  1  0
 23 26  1  0
 27 28  1  0
 27 29  2  0
 29 30  1  0
 29 91  1  0
 30 31  1  6
 30 32  1  0
 30 56  1  0
 32 33  1  0
 33 34  2  0
 33 50  1  0
 34 35  1  0
 34 36  1  0
 36 37  1  0
 36 38  2  0
 38 39  1  0
 38 48  1  0
 39 40  1  0
 39 41  2  0
 41 42  1  0
 41 43  1  0
 43 44  1  0
 43 45  1  0
 43 46  1  0
 46 47  1  0
 48 49  1  0
 48 50  2  0
 50 51  1  0
 51 52  1  0
 52 53  1  0
 52 54  1  0
 52 55  1  0
 56 57  1  1
 56 58  1  0
 56 86  1  0
 58 59  1  0
 59 60  2  0
 59 80  1  0
 60 61  1  0
 60 66  1  0
 61 62  1  0
 62 63  1  0
 62 64  1  0
 62 65  1  0
 66 67  1  0
 66 68  2  0
 68 69  1  0
 68 78  1  0
 69 70  1  0
 69 71  2  0
 71 72  1  0
 71 73  1  0
 73 74  1  0
 73 75  1  0
 73 76  1  0
 76 77  1  0
 78 79  1  0
 78 80  2  0
 80 81  1  0
 81 82  1  0
 82 83  1  0
 82 84  1  0
 82 85  1  0
 86 87  1  0
 86 88  1  0
 86 89  1  0
 89 90  1  0
 91 92  1  0
 91 93  2  0
 93 94  1  0
 94 95  1  0
 95 96  1  0
 95 97  1  0
 95 98  1  0
 99100  1  0
 99101  1  0
 99102  1  0
102103  1  0
104105  1  0
104106  2  0
106107  1  0
107108  1  0
108109  1  0
108110  1  0
108111  1  0
M  END
