
     RDKit          3D

123127  0  0  1  0  0  0  0  0999 V2000
    6.0154    4.3101   -1.6673 H   0  0  0  0  0  0  0  0  0  0  0  0
    6.6849    4.2778   -2.3730 O   0  0  0  0  0  0  0  0  0  0  0  0
    6.6532    3.0092   -2.8878 C   0  0  0  0  0  0  0  0  0  0  0  0
    5.6818    2.1257   -2.4024 C   0  0  0  0  0  0  0  0  0  0  0  0
    4.7240    2.6610   -1.5867 O   0  0  0  0  0  0  0  0  0  0  0  0
    4.5847    2.2548   -0.2789 C   0  0  0  0  0  0  0  0  0  0  0  0
    5.5681    2.3471    0.7139 C   0  0  0  0  0  0  0  0  0  0  0  0
    6.9223    2.4141    0.4882 O   0  0  0  0  0  0  0  0  0  0  0  0
    7.5849    1.2466    0.1342 C   0  0  0  0  0  0  0  0  0  0  0  0
    7.1366   -0.0575    0.4466 C   0  0  0  0  0  0  0  0  0  0  0  0
    6.1325   -0.1934    1.3696 O   0  0  0  0  0  0  0  0  0  0  0  0
    5.7678   -1.4905    1.8162 C   0  0  0  0  0  0  0  0  0  0  0  0
    6.5916   -1.9795    2.3475 H   0  0  0  0  0  0  0  0  0  0  0  0
    5.3870   -2.1087    0.9927 H   0  0  0  0  0  0  0  0  0  0  0  0
    4.9373   -1.3730    2.5150 H   0  0  0  0  0  0  0  0  0  0  0  0
    7.7179   -1.1568   -0.2046 C   0  0  0  0  0  0  0  0  0  0  0  0
    7.3547   -2.1569   -0.0086 H   0  0  0  0  0  0  0  0  0  0  0  0
    8.7294   -0.9856   -1.1565 C   0  0  0  0  0  0  0  0  0  0  0  0
    9.1922   -2.0692   -2.0413 C   0  0  0  0  0  0  0  0  0  0  0  0
   10.0360   -1.8211   -2.6863 H   0  0  0  0  0  0  0  0  0  0  0  0
    8.6197   -3.2781   -2.1817 C   0  0  0  0  0  0  0  0  0  0  0  0
    7.7776   -3.5700   -1.5640 H   0  0  0  0  0  0  0  0  0  0  0  0
    9.0148   -4.3147   -3.1893 C   0  0  0  0  0  0  0  0  0  0  0  0
    9.7584   -4.9976   -2.7659 H   0  0  0  0  0  0  0  0  0  0  0  0
    8.1374   -4.9023   -3.4772 H   0  0  0  0  0  0  0  0  0  0  0  0
    9.5296   -3.7135   -4.3607 O   0  0  0  0  0  0  0  0  0  0  0  0
    8.7766   -3.2201   -4.7543 H   0  0  0  0  0  0  0  0  0  0  0  0
    9.2870    0.2914   -1.3017 C   0  0  0  0  0  0  0  0  0  0  0  0
   10.1112    0.4561   -1.9956 H   0  0  0  0  0  0  0  0  0  0  0  0
    8.7553    1.4037   -0.6343 C   0  0  0  0  0  0  0  0  0  0  0  0
    9.4068    2.5826   -0.8979 O   0  0  0  0  0  0  0  0  0  0  0  0
    9.4394    3.5247    0.1700 C   0  0  0  0  0  0  0  0  0  0  0  0
    8.5668    4.1841    0.1235 H   0  0  0  0  0  0  0  0  0  0  0  0
    9.5255    3.0454    1.1511 H   0  0  0  0  0  0  0  0  0  0  0  0
   10.3267    4.1500    0.0277 H   0  0  0  0  0  0  0  0  0  0  0  0
    5.1859    2.4833    2.0604 C   0  0  0  0  0  0  0  0  0  0  0  0
    5.9656    2.6604    2.8068 H   0  0  0  0  0  0  0  0  0  0  0  0
    3.8375    2.4382    2.4398 C   0  0  0  0  0  0  0  0  0  0  0  0
    3.3618    2.8177    3.8372 C   0  0  1  0  0  0  0  0  0  0  0  0
    2.3962    2.3368    3.9857 H   0  0  0  0  0  0  0  0  0  0  0  0
    4.2695    2.4335    4.8805 O   0  0  0  0  0  0  0  0  0  0  0  0
    4.3763    1.0952    5.1512 C   0  0  0  0  0  0  0  0  0  0  0  0
    3.2868    0.2345    5.2277 C   0  0  0  0  0  0  0  0  0  0  0  0
    2.2700    0.5889    5.1310 H   0  0  0  0  0  0  0  0  0  0  0  0
    3.4969   -1.1286    5.4333 C   0  0  0  0  0  0  0  0  0  0  0  0
    2.6347   -1.7935    5.4655 H   0  0  0  0  0  0  0  0  0  0  0  0
    4.7936   -1.6454    5.5689 C   0  0  0  0  0  0  0  0  0  0  0  0
    5.0551   -3.0807    5.6595 C   0  0  0  0  0  0  0  0  0  0  0  0
    5.8691   -3.3792    6.3121 H   0  0  0  0  0  0  0  0  0  0  0  0
    4.4117   -3.9862    4.9017 C   0  0  0  0  0  0  0  0  0  0  0  0
    3.6239   -3.6698    4.2255 H   0  0  0  0  0  0  0  0  0  0  0  0
    4.7269   -5.4481    4.8477 C   0  0  0  0  0  0  0  0  0  0  0  0
    3.9303   -6.0317    5.3193 H   0  0  0  0  0  0  0  0  0  0  0  0
    4.8060   -5.7619    3.8037 H   0  0  0  0  0  0  0  0  0  0  0  0
    5.9560   -5.7122    5.5010 O   0  0  0  0  0  0  0  0  0  0  0  0
    6.4841   -6.2644    4.9025 H   0  0  0  0  0  0  0  0  0  0  0  0
    5.8760   -0.7594    5.6070 C   0  0  0  0  0  0  0  0  0  0  0  0
    6.8906   -1.1242    5.7381 H   0  0  0  0  0  0  0  0  0  0  0  0
    5.6589    0.6045    5.4194 C   0  0  0  0  0  0  0  0  0  0  0  0
    6.7455    1.4442    5.4360 O   0  0  0  0  0  0  0  0  0  0  0  0
    6.8851    2.0062    6.7436 C   0  0  0  0  0  0  0  0  0  0  0  0
    7.4683    2.9309    6.6567 H   0  0  0  0  0  0  0  0  0  0  0  0
    5.9192    2.2510    7.2091 H   0  0  0  0  0  0  0  0  0  0  0  0
    7.4330    1.3110    7.3924 H   0  0  0  0  0  0  0  0  0  0  0  0
    3.1550    4.3651    3.9001 C   0  0  1  0  0  0  0  0  0  0  0  0
    2.8967    4.7105    2.8901 H   0  0  0  0  0  0  0  0  0  0  0  0
    1.9868    4.8028    4.6483 O   0  0  0  0  0  0  0  0  0  0  0  0
    1.7867    4.2454    5.8780 C   0  0  0  0  0  0  0  0  0  0  0  0
    0.8890    3.1779    5.9652 C   0  0  0  0  0  0  0  0  0  0  0  0
    0.3970    2.8000    5.0740 H   0  0  0  0  0  0  0  0  0  0  0  0
    0.6099    2.5927    7.2007 C   0  0  0  0  0  0  0  0  0  0  0  0
   -0.0915    1.7646    7.2522 H   0  0  0  0  0  0  0  0  0  0  0  0
    1.1907    3.1002    8.3685 C   0  0  0  0  0  0  0  0  0  0  0  0
    0.8619    2.5488    9.6881 C   0  0  0  0  0  0  0  0  0  0  0  0
    0.5775    3.2741   10.4455 H   0  0  0  0  0  0  0  0  0  0  0  0
    0.9101    1.2413    9.9806 C   0  0  0  0  0  0  0  0  0  0  0  0
    1.2310    0.5326    9.2137 H   0  0  0  0  0  0  0  0  0  0  0  0
    0.5832    0.6293   11.3087 C   0  0  0  0  0  0  0  0  0  0  0  0
   -0.2302   -0.0941   11.1892 H   0  0  0  0  0  0  0  0  0  0  0  0
    1.4614    0.1161   11.7101 H   0  0  0  0  0  0  0  0  0  0  0  0
    0.1735    1.6208   12.2346 O   0  0  0  0  0  0  0  0  0  0  0  0
    0.0187    1.1707   13.0804 H   0  0  0  0  0  0  0  0  0  0  0  0
    2.0344    4.2145    8.2835 C   0  0  0  0  0  0  0  0  0  0  0  0
    2.4564    4.6485    9.1868 H   0  0  0  0  0  0  0  0  0  0  0  0
    2.3066    4.8004    7.0474 C   0  0  0  0  0  0  0  0  0  0  0  0
    3.0790    5.9290    7.0577 O   0  0  0  0  0  0  0  0  0  0  0  0
    2.3062    7.0728    6.6934 C   0  0  0  0  0  0  0  0  0  0  0  0
    2.3140    7.2201    5.6078 H   0  0  0  0  0  0  0  0  0  0  0  0
    1.2729    7.0160    7.0599 H   0  0  0  0  0  0  0  0  0  0  0  0
    2.7792    7.9473    7.1547 H   0  0  0  0  0  0  0  0  0  0  0  0
    4.4328    5.1259    4.2921 C   0  0  0  0  0  0  0  0  0  0  0  0
    4.6764    4.9926    5.3461 H   0  0  0  0  0  0  0  0  0  0  0  0
    5.2874    4.7884    3.7030 H   0  0  0  0  0  0  0  0  0  0  0  0
    4.2982    6.5228    4.0208 O   0  0  0  0  0  0  0  0  0  0  0  0
    5.0166    6.9659    4.5040 H   0  0  0  0  0  0  0  0  0  0  0  0
    2.8772    2.1708    1.4582 C   0  0  0  0  0  0  0  0  0  0  0  0
    1.8213    2.1070    1.7117 H   0  0  0  0  0  0  0  0  0  0  0  0
    3.2516    2.0782    0.1198 C   0  0  0  0  0  0  0  0  0  0  0  0
    2.2527    1.9393   -0.8159 O   0  0  0  0  0  0  0  0  0  0  0  0
    1.9837    0.5513   -1.0420 C   0  0  0  0  0  0  0  0  0  0  0  0
    2.2544    0.3026   -2.0752 H   0  0  0  0  0  0  0  0  0  0  0  0
    2.5194   -0.1301   -0.3624 H   0  0  0  0  0  0  0  0  0  0  0  0
    0.9117    0.3941   -0.9180 H   0  0  0  0  0  0  0  0  0  0  0  0
    5.5501    0.8375   -2.9222 C   0  0  0  0  0  0  0  0  0  0  0  0
    4.7557    0.2023   -2.5637 H   0  0  0  0  0  0  0  0  0  0  0  0
    6.4111    0.4144   -3.9417 C   0  0  0  0  0  0  0  0  0  0  0  0
    6.3373   -0.9049   -4.5891 C   0  0  0  0  0  0  0  0  0  0  0  0
    7.2184   -1.1868   -5.1710 H   0  0  0  0  0  0  0  0  0  0  0  0
    5.2857   -1.7443   -4.5831 C   0  0  0  0  0  0  0  0  0  0  0  0
    4.3752   -1.4856   -4.0470 H   0  0  0  0  0  0  0  0  0  0  0  0
    5.2152   -3.0539   -5.3059 C   0  0  0  0  0  0  0  0  0  0  0  0
    4.9423   -3.8613   -4.6147 H   0  0  0  0  0  0  0  0  0  0  0  0
    4.4505   -2.9947   -6.0943 H   0  0  0  0  0  0  0  0  0  0  0  0
    6.4695   -3.3852   -5.8965 O   0  0  0  0  0  0  0  0  0  0  0  0
    6.2872   -4.0391   -6.5949 H   0  0  0  0  0  0  0  0  0  0  0  0
    7.4198    1.2980   -4.3788 C   0  0  0  0  0  0  0  0  0  0  0  0
    8.1036    0.9865   -5.1673 H   0  0  0  0  0  0  0  0  0  0  0  0
    7.5563    2.5951   -3.8662 C   0  0  0  0  0  0  0  0  0  0  0  0
    8.5713    3.3005   -4.4469 O   0  0  0  0  0  0  0  0  0  0  0  0
    8.8790    4.5841   -3.9243 C   0  0  0  0  0  0  0  0  0  0  0  0
    9.7219    4.9716   -4.4974 H   0  0  0  0  0  0  0  0  0  0  0  0
    8.0503    5.2866   -4.0698 H   0  0  0  0  0  0  0  0  0  0  0  0
    9.1922    4.5220   -2.8827 H   0  0  0  0  0  0  0  0  0  0  0  0
  1  2  1  0
  2  3  1  0
  3  4  2  0
  3118  1  0
  4  5  1  0
  4104  1  0
  5  6  1  0
  6  7  1  0
  6 98  2  0
  7  8  1  0
  7 36  2  0
  8  9  1  0
  9 10  2  0
  9 30  1  0
 10 11  1  0
 10 16  1  0
 11 12  1  0
 12 13  1  0
 12 14  1  0
 12 15  1  0
 16 17  1  0
 16 18  2  0
 18 19  1  0
 18 28  1  0
 19 20  1  0
 19 21  2  0
 21 22  1  0
 21 23  1  0
 23 24  1  0
 23 25  1  0
 23 26  1  0
 26 27  1  0
 28 29  1  0
 28 30  2  0
 30 31  1  0
 31 32  1  0
 32 33  1  0
 32 34  1  0
 32 35  1  0
 36 37  1  0
 36 38  1  0
 38 39  1  0
 38 96  2  0
 39 40  1  1
 39 41  1  0
 39 65  1  0
 41 42  1  0
 42 43  2  0
 42 59  1  0
 43 44  1  0
 43 45  1  0
 45 46  1  0
 45 47  2  0
 47 48  1  0
 47 57  1  0
 48 49  1  0
 48 50  2  0
 50 51  1  0
 50 52  1  0
 52 53  1  0
 52 54  1  0
 52 55  1  0
 55 56  1  0
 57 58  1  0
 57 59  2  0
 59 60  1  0
 60 61  1  0
 61 62  1  0
 61 63  1  0
 61 64  1  0
 65 66  1  6
 65 67  1  0
 65 91  1  0
 67 68  1  0
 68 69  2  0
 68 85  1  0
 69 70  1  0
 69 71  1  0
 71 72  1  0
 71 73  2  0
 73 74  1  0
 73 83  1  0
 74 75  1  0
 74 76  2  0
 76 77  1  0
 76 78  1  0
 78 79  1  0
 78 80  1  0
 78 81  1  0
 81 82  1  0
 83 84  1  0
 83 85  2  0
 85 86  1  0
 86 87  1  0
 87 88  1  0
 87 89  1  0
 87 90  1  0
 91 92  1  0
 91 93  1  0
 91 94  1  0
 94 95  1  0
 96 97  1  0
 96 98  1  0
 98 99  1  0
 99100  1  0
100101  1  0
100102  1  0
100103  1  0
104105  1  0
104106  2  0
106107  1  0
106116  1  0
107108  1  0
107109  2  0
109110  1  0
109111  1  0
111112  1  0
111113  1  0
111114  1  0
114115  1  0
116117  1  0
116118  2  0
118119  1  0
119120  1  0
120121  1  0
120122  1  0
120123  1  0
M  END
