
     RDKit          3D

172178  0  0  1  0  0  0  0  0999 V2000
    6.6416    1.6747   -2.1827 H   0  0  0  0  0  0  0  0  0  0  0  0
    6.0357    1.1569   -1.6329 O   0  0  0  0  0  0  0  0  0  0  0  0
    5.0612    0.6740   -2.4806 C   0  0  0  0  0  0  0  0  0  0  0  0
    4.1297   -0.2690   -2.0521 C   0  0  0  0  0  0  0  0  0  0  0  0
    4.1013   -0.8359   -0.7970 O   0  0  0  0  0  0  0  0  0  0  0  0
    4.0878   -0.0062    0.2923 C   0  0  0  0  0  0  0  0  0  0  0  0
    3.1385    1.0204    0.3650 C   0  0  0  0  0  0  0  0  0  0  0  0
    2.4314    1.1746   -0.4500 H   0  0  0  0  0  0  0  0  0  0  0  0
    3.0837    1.8393    1.4845 C   0  0  0  0  0  0  0  0  0  0  0  0
    2.3314    2.6181    1.5378 H   0  0  0  0  0  0  0  0  0  0  0  0
    3.9798    1.6779    2.5480 C   0  0  0  0  0  0  0  0  0  0  0  0
    3.9710    2.6009    3.7666 C   0  0  1  0  0  0  0  0  0  0  0  0
    5.0044    2.7356    4.0942 H   0  0  0  0  0  0  0  0  0  0  0  0
    3.4548    3.9274    3.5077 O   0  0  0  0  0  0  0  0  0  0  0  0
    3.8314    4.6936    2.4289 C   0  0  0  0  0  0  0  0  0  0  0  0
    5.0024    4.6287    1.6404 C   0  0  0  0  0  0  0  0  0  0  0  0
    6.1164    3.8495    1.8262 O   0  0  0  0  0  0  0  0  0  0  0  0
    7.0511    4.0609    2.8217 C   0  0  0  0  0  0  0  0  0  0  0  0
    6.9864    4.9492    3.8929 C   0  0  0  0  0  0  0  0  0  0  0  0
    6.0476    5.9472    3.9553 O   0  0  0  0  0  0  0  0  0  0  0  0
    6.6219    7.1717    3.4986 C   0  0  0  0  0  0  0  0  0  0  0  0
    7.1859    7.0432    2.5627 H   0  0  0  0  0  0  0  0  0  0  0  0
    5.8040    7.8842    3.3067 H   0  0  0  0  0  0  0  0  0  0  0  0
    7.2752    7.6019    4.2713 H   0  0  0  0  0  0  0  0  0  0  0  0
    7.8870    4.8302    4.9817 C   0  0  0  0  0  0  0  0  0  0  0  0
    7.7713    5.4934    5.8271 H   0  0  0  0  0  0  0  0  0  0  0  0
    8.9124    3.8782    4.9778 C   0  0  0  0  0  0  0  0  0  0  0  0
    9.8267    3.6444    6.1054 C   0  0  0  0  0  0  0  0  0  0  0  0
   10.8304    3.3094    5.8504 H   0  0  0  0  0  0  0  0  0  0  0  0
    9.4674    3.7233    7.3963 C   0  0  0  0  0  0  0  0  0  0  0  0
    8.4588    4.0565    7.6606 H   0  0  0  0  0  0  0  0  0  0  0  0
   10.3287    3.3841    8.5767 C   0  0  0  0  0  0  0  0  0  0  0  0
   10.3642    4.2317    9.2657 H   0  0  0  0  0  0  0  0  0  0  0  0
    9.9101    2.5178    9.1025 H   0  0  0  0  0  0  0  0  0  0  0  0
   11.6597    3.0737    8.1843 O   0  0  0  0  0  0  0  0  0  0  0  0
   12.0705    2.6870    8.9832 H   0  0  0  0  0  0  0  0  0  0  0  0
    9.1088    3.1553    3.7977 C   0  0  0  0  0  0  0  0  0  0  0  0
    9.9684    2.5030    3.6917 H   0  0  0  0  0  0  0  0  0  0  0  0
    8.1959    3.2513    2.7414 C   0  0  0  0  0  0  0  0  0  0  0  0
    8.5811    2.6677    1.5533 O   0  0  0  0  0  0  0  0  0  0  0  0
    7.9801    1.4020    1.3507 C   0  0  0  0  0  0  0  0  0  0  0  0
    6.9705    1.5404    0.9528 H   0  0  0  0  0  0  0  0  0  0  0  0
    8.5625    0.8752    0.5872 H   0  0  0  0  0  0  0  0  0  0  0  0
    7.9753    0.7923    2.2615 H   0  0  0  0  0  0  0  0  0  0  0  0
    4.9771    5.2378    0.3605 C   0  0  0  0  0  0  0  0  0  0  0  0
    5.8220    5.0758   -0.3117 H   0  0  0  0  0  0  0  0  0  0  0  0
    3.8639    5.9562   -0.0890 C   0  0  0  0  0  0  0  0  0  0  0  0
    3.7432    6.3801   -1.4846 C   0  0  0  0  0  0  0  0  0  0  0  0
    4.2031    7.3321   -1.7693 H   0  0  0  0  0  0  0  0  0  0  0  0
    2.9909    5.6940   -2.3583 C   0  0  0  0  0  0  0  0  0  0  0  0
    2.5446    4.7488   -2.0225 H   0  0  0  0  0  0  0  0  0  0  0  0
    2.6721    6.0612   -3.7772 C   0  0  0  0  0  0  0  0  0  0  0  0
    2.7754    5.1779   -4.4177 H   0  0  0  0  0  0  0  0  0  0  0  0
    1.6439    6.4292   -3.8518 H   0  0  0  0  0  0  0  0  0  0  0  0
    3.5636    7.0602   -4.2487 O   0  0  0  0  0  0  0  0  0  0  0  0
    3.2042    7.3566   -5.1095 H   0  0  0  0  0  0  0  0  0  0  0  0
    2.8060    6.1996    0.7870 C   0  0  0  0  0  0  0  0  0  0  0  0
    1.9380    6.7453    0.4352 H   0  0  0  0  0  0  0  0  0  0  0  0
    2.8025    5.6015    2.0515 C   0  0  0  0  0  0  0  0  0  0  0  0
    1.7376    5.7316    2.9131 O   0  0  0  0  0  0  0  0  0  0  0  0
    1.0109    6.9436    2.8549 C   0  0  0  0  0  0  0  0  0  0  0  0
    0.2282    6.8900    2.0957 H   0  0  0  0  0  0  0  0  0  0  0  0
    0.5189    7.0836    3.8268 H   0  0  0  0  0  0  0  0  0  0  0  0
    1.6531    7.8233    2.6692 H   0  0  0  0  0  0  0  0  0  0  0  0
    3.2074    1.9191    4.9827 C   0  0  1  0  0  0  0  0  0  0  0  0
    3.9512    1.2839    5.4939 H   0  0  0  0  0  0  0  0  0  0  0  0
    2.5880    2.7000    6.0303 O   0  0  0  0  0  0  0  0  0  0  0  0
    2.9831    3.9599    6.3305 C   0  0  0  0  0  0  0  0  0  0  0  0
    1.9875    4.9435    6.4347 C   0  0  0  0  0  0  0  0  0  0  0  0
    0.6311    4.7108    6.3306 O   0  0  0  0  0  0  0  0  0  0  0  0
    0.0671    3.6604    7.0187 C   0  0  0  0  0  0  0  0  0  0  0  0
    0.4475    3.3444    8.3297 C   0  0  0  0  0  0  0  0  0  0  0  0
    1.2333    3.8967    8.8259 H   0  0  0  0  0  0  0  0  0  0  0  0
   -0.1576    2.2831    9.0266 C   0  0  0  0  0  0  0  0  0  0  0  0
    0.1830    2.0403   10.0237 H   0  0  0  0  0  0  0  0  0  0  0  0
   -1.1887    1.5599    8.4334 C   0  0  0  0  0  0  0  0  0  0  0  0
   -1.8774    0.4493    9.1125 C   0  0  0  0  0  0  0  0  0  0  0  0
   -2.9597    0.5405    9.1829 H   0  0  0  0  0  0  0  0  0  0  0  0
   -1.2488   -0.6502    9.5671 C   0  0  0  0  0  0  0  0  0  0  0  0
   -0.1704   -0.7380    9.4505 H   0  0  0  0  0  0  0  0  0  0  0  0
   -1.9175   -1.8440   10.1734 C   0  0  0  0  0  0  0  0  0  0  0  0
   -1.6403   -2.7384    9.6093 H   0  0  0  0  0  0  0  0  0  0  0  0
   -1.5949   -1.9662   11.2111 H   0  0  0  0  0  0  0  0  0  0  0  0
   -3.3292   -1.7232   10.1460 O   0  0  0  0  0  0  0  0  0  0  0  0
   -3.6980   -2.5393   10.5363 H   0  0  0  0  0  0  0  0  0  0  0  0
   -1.5992    1.9069    7.1405 C   0  0  0  0  0  0  0  0  0  0  0  0
   -2.4126    1.3478    6.6612 H   0  0  0  0  0  0  0  0  0  0  0  0
   -0.9845    2.9513    6.4218 C   0  0  0  0  0  0  0  0  0  0  0  0
   -1.5331    3.0921    5.1725 O   0  0  0  0  0  0  0  0  0  0  0  0
   -0.8817    3.9496    4.2511 C   0  0  0  0  0  0  0  0  0  0  0  0
   -0.9869    5.0008    4.5457 H   0  0  0  0  0  0  0  0  0  0  0  0
    0.1676    3.6681    4.1158 H   0  0  0  0  0  0  0  0  0  0  0  0
   -1.3874    3.8418    3.2856 H   0  0  0  0  0  0  0  0  0  0  0  0
    2.3444    6.2968    6.4765 C   0  0  0  0  0  0  0  0  0  0  0  0
    1.5584    7.0552    6.4080 H   0  0  0  0  0  0  0  0  0  0  0  0
    3.6876    6.6807    6.5134 C   0  0  0  0  0  0  0  0  0  0  0  0
    4.1063    8.1158    6.2787 C   0  0  1  0  0  0  0  0  0  0  0  0
    5.1740    8.1092    6.0458 H   0  0  0  0  0  0  0  0  0  0  0  0
    3.4883    8.5762    5.0674 O   0  0  0  0  0  0  0  0  0  0  0  0
    3.4275    7.7918    4.4909 H   0  0  0  0  0  0  0  0  0  0  0  0
    3.8279    9.0609    7.4749 C   0  0  1  0  0  0  0  0  0  0  0  0
    2.7620    8.9431    7.7312 H   0  0  0  0  0  0  0  0  0  0  0  0
    4.5389    8.7328    8.6903 O   0  0  0  0  0  0  0  0  0  0  0  0
    5.8760    8.4722    8.7105 C   0  0  0  0  0  0  0  0  0  0  0  0
    6.7970    8.9945    7.7960 C   0  0  0  0  0  0  0  0  0  0  0  0
    6.5108    9.7116    7.0350 H   0  0  0  0  0  0  0  0  0  0  0  0
    8.1383    8.6082    7.8377 C   0  0  0  0  0  0  0  0  0  0  0  0
    8.8353    9.0201    7.1092 H   0  0  0  0  0  0  0  0  0  0  0  0
    8.5908    7.6957    8.7905 C   0  0  0  0  0  0  0  0  0  0  0  0
    9.9950    7.2860    8.8486 C   0  0  0  0  0  0  0  0  0  0  0  0
   10.4485    7.2379    9.8409 H   0  0  0  0  0  0  0  0  0  0  0  0
   10.7217    6.9516    7.7633 C   0  0  0  0  0  0  0  0  0  0  0  0
   10.2556    6.9679    6.7838 H   0  0  0  0  0  0  0  0  0  0  0  0
   12.1518    6.5149    7.7456 C   0  0  0  0  0  0  0  0  0  0  0  0
   12.2447    5.5453    7.2455 H   0  0  0  0  0  0  0  0  0  0  0  0
   12.7589    7.2518    7.2104 H   0  0  0  0  0  0  0  0  0  0  0  0
   12.6611    6.3957    9.0685 O   0  0  0  0  0  0  0  0  0  0  0  0
   13.5190    5.9501    8.9860 H   0  0  0  0  0  0  0  0  0  0  0  0
    7.6878    7.2244    9.7477 C   0  0  0  0  0  0  0  0  0  0  0  0
    8.0196    6.5402   10.5287 H   0  0  0  0  0  0  0  0  0  0  0  0
    6.3517    7.6288    9.7296 C   0  0  0  0  0  0  0  0  0  0  0  0
    5.5655    7.0940   10.7274 O   0  0  0  0  0  0  0  0  0  0  0  0
    4.7714    8.0717   11.4123 C   0  0  0  0  0  0  0  0  0  0  0  0
    5.2258    9.0710   11.4103 H   0  0  0  0  0  0  0  0  0  0  0  0
    3.7621    8.0928   10.9911 H   0  0  0  0  0  0  0  0  0  0  0  0
    4.6850    7.7458   12.4516 H   0  0  0  0  0  0  0  0  0  0  0  0
    4.0002   10.5647    7.1360 C   0  0  0  0  0  0  0  0  0  0  0  0
    4.3612   11.1213    8.0064 H   0  0  0  0  0  0  0  0  0  0  0  0
    4.7107   10.7100    6.3140 H   0  0  0  0  0  0  0  0  0  0  0  0
    2.7585   11.1509    6.7410 O   0  0  0  0  0  0  0  0  0  0  0  0
    2.9497   12.0678    6.4735 H   0  0  0  0  0  0  0  0  0  0  0  0
    4.6522    5.6778    6.6389 C   0  0  0  0  0  0  0  0  0  0  0  0
    5.6984    5.9513    6.7489 H   0  0  0  0  0  0  0  0  0  0  0  0
    4.3122    4.3311    6.5434 C   0  0  0  0  0  0  0  0  0  0  0  0
    5.3307    3.4148    6.5530 O   0  0  0  0  0  0  0  0  0  0  0  0
    5.3637    2.7167    7.8014 C   0  0  0  0  0  0  0  0  0  0  0  0
    5.5606    3.4049    8.6297 H   0  0  0  0  0  0  0  0  0  0  0  0
    4.4395    2.1590    7.9685 H   0  0  0  0  0  0  0  0  0  0  0  0
    6.1880    2.0009    7.7491 H   0  0  0  0  0  0  0  0  0  0  0  0
    2.0509    0.9585    4.5732 C   0  0  0  0  0  0  0  0  0  0  0  0
    1.3047    0.8776    5.3709 H   0  0  0  0  0  0  0  0  0  0  0  0
    1.5224    1.3019    3.6871 H   0  0  0  0  0  0  0  0  0  0  0  0
    2.5426   -0.3674    4.3526 O   0  0  0  0  0  0  0  0  0  0  0  0
    1.7752   -0.9161    4.1343 H   0  0  0  0  0  0  0  0  0  0  0  0
    4.8694    0.5967    2.4973 C   0  0  0  0  0  0  0  0  0  0  0  0
    5.5410    0.4101    3.3357 H   0  0  0  0  0  0  0  0  0  0  0  0
    4.9323   -0.2598    1.3853 C   0  0  0  0  0  0  0  0  0  0  0  0
    5.8526   -1.2595    1.5431 O   0  0  0  0  0  0  0  0  0  0  0  0
    6.2415   -2.0020    0.3957 C   0  0  0  0  0  0  0  0  0  0  0  0
    5.4329   -2.6540    0.0644 H   0  0  0  0  0  0  0  0  0  0  0  0
    6.6117   -1.3581   -0.4008 H   0  0  0  0  0  0  0  0  0  0  0  0
    7.0651   -2.6503    0.6940 H   0  0  0  0  0  0  0  0  0  0  0  0
    3.2396   -0.8099   -2.9712 C   0  0  0  0  0  0  0  0  0  0  0  0
    2.5280   -1.5663   -2.6438 H   0  0  0  0  0  0  0  0  0  0  0  0
    3.2864   -0.4295   -4.3223 C   0  0  0  0  0  0  0  0  0  0  0  0
    2.4571   -1.1501   -5.2897 C   0  0  0  0  0  0  0  0  0  0  0  0
    1.7115   -0.5897   -5.8492 H   0  0  0  0  0  0  0  0  0  0  0  0
    2.6009   -2.4773   -5.4374 C   0  0  0  0  0  0  0  0  0  0  0  0
    3.3752   -2.9915   -4.8675 H   0  0  0  0  0  0  0  0  0  0  0  0
    1.8135   -3.3928   -6.3196 C   0  0  0  0  0  0  0  0  0  0  0  0
    2.4457   -3.7597   -7.1352 H   0  0  0  0  0  0  0  0  0  0  0  0
    1.4618   -4.2485   -5.7337 H   0  0  0  0  0  0  0  0  0  0  0  0
    0.6892   -2.7307   -6.8650 O   0  0  0  0  0  0  0  0  0  0  0  0
    0.2067   -3.3952   -7.3888 H   0  0  0  0  0  0  0  0  0  0  0  0
    4.1837    0.5588   -4.7383 C   0  0  0  0  0  0  0  0  0  0  0  0
    4.2481    0.8265   -5.7889 H   0  0  0  0  0  0  0  0  0  0  0  0
    5.0669    1.1164   -3.8107 C   0  0  0  0  0  0  0  0  0  0  0  0
    6.0644    1.9858   -4.1661 O   0  0  0  0  0  0  0  0  0  0  0  0
    5.5676    3.1831   -4.7763 C   0  0  0  0  0  0  0  0  0  0  0  0
    4.9603    3.7509   -4.0616 H   0  0  0  0  0  0  0  0  0  0  0  0
    6.4332    3.8057   -5.0315 H   0  0  0  0  0  0  0  0  0  0  0  0
    5.0024    2.9783   -5.6974 H   0  0  0  0  0  0  0  0  0  0  0  0
  1  2  1  0
  2  3  1  0
  3  4  2  0
  3167  1  0
  4  5  1  0
  4153  1  0
  5  6  1  0
  6  7  2  0
  6147  1  0
  7  8  1  0
  7  9  1  0
  9 10  1  0
  9 11  2  0
 11 12  1  0
 11145  1  0
 12 13  1  1
 12 14  1  0
 12 65  1  0
 14 15  1  0
 15 16  1  0
 15 59  2  0
 16 17  1  0
 16 45  2  0
 17 18  1  0
 18 19  2  0
 18 39  1  0
 19 20  1  0
 19 25  1  0
 20 21  1  0
 21 22  1  0
 21 23  1  0
 21 24  1  0
 25 26  1  0
 25 27  2  0
 27 28  1  0
 27 37  1  0
 28 29  1  0
 28 30  2  0
 30 31  1  0
 30 32  1  0
 32 33  1  0
 32 34  1  0
 32 35  1  0
 35 36  1  0
 37 38  1  0
 37 39  2  0
 39 40  1  0
 40 41  1  0
 41 42  1  0
 41 43  1  0
 41 44  1  0
 45 46  1  0
 45 47  1  0
 47 48  1  0
 47 57  2  0
 48 49  1  0
 48 50  2  0
 50 51  1  0
 50 52  1  0
 52 53  1  0
 52 54  1  0
 52 55  1  0
 55 56  1  0
 57 58  1  0
 57 59  1  0
 59 60  1  0
 60 61  1  0
 61 62  1  0
 61 63  1  0
 61 64  1  0
 65 66  1  1
 65 67  1  0
 65140  1  0
 67 68  1  0
 68 69  1  0
 68134  2  0
 69 70  1  0
 69 94  2  0
 70 71  1  0
 71 72  2  0
 71 88  1  0
 72 73  1  0
 72 74  1  0
 74 75  1  0
 74 76  2  0
 76 77  1  0
 76 86  1  0
 77 78  1  0
 77 79  2  0
 79 80  1  0
 79 81  1  0
 81 82  1  0
 81 83  1  0
 81 84  1  0
 84 85  1  0
 86 87  1  0
 86 88  2  0
 88 89  1  0
 89 90  1  0
 90 91  1  0
 90 92  1  0
 90 93  1  0
 94 95  1  0
 94 96  1  0
 96 97  1  0
 96132  2  0
 97 98  1  6
 97 99  1  0
 97101  1  0
 99100  1  0
101102  1  1
101103  1  0
101127  1  0
103104  1  0
104105  2  0
104121  1  0
105106  1  0
105107  1  0
107108  1  0
107109  2  0
109110  1  0
109119  1  0
110111  1  0
110112  2  0
112113  1  0
112114  1  0
114115  1  0
114116  1  0
114117  1  0
117118  1  0
119120  1  0
119121  2  0
121122  1  0
122123  1  0
123124  1  0
123125  1  0
123126  1  0
127128  1  0
127129  1  0
127130  1  0
130131  1  0
132133  1  0
132134  1  0
134135  1  0
135136  1  0
136137  1  0
136138  1  0
136139  1  0
140141  1  0
140142  1  0
140143  1  0
143144  1  0
145146  1  0
145147  2  0
147148  1  0
148149  1  0
149150  1  0
149151  1  0
149152  1  0
153154  1  0
153155  2  0
155156  1  0
155165  1  0
156157  1  0
156158  2  0
158159  1  0
158160  1  0
160161  1  0
160162  1  0
160163  1  0
163164  1  0
165166  1  0
165167  2  0
167168  1  0
168169  1  0
169170  1  0
169171  1  0
169172  1  0
M  END
