
     RDKit          3D

138142  0  0  1  0  0  0  0  0999 V2000
   -1.0557   -2.6334   -7.1720 H   0  0  0  0  0  0  0  0  0  0  0  0
   -0.8664   -3.4103   -7.7348 O   0  0  0  0  0  0  0  0  0  0  0  0
   -1.0075   -4.4580   -6.8605 C   0  0  0  0  0  0  0  0  0  0  0  0
   -2.2719   -4.9424   -6.5077 C   0  0  0  0  0  0  0  0  0  0  0  0
   -3.4979   -4.5591   -6.9682 O   0  0  0  0  0  0  0  0  0  0  0  0
   -3.5652   -3.6283   -8.0407 C   0  0  0  0  0  0  0  0  0  0  0  0
   -3.2380   -2.6370   -7.7174 H   0  0  0  0  0  0  0  0  0  0  0  0
   -3.0079   -3.9761   -8.9172 H   0  0  0  0  0  0  0  0  0  0  0  0
   -4.6152   -3.5426   -8.3314 H   0  0  0  0  0  0  0  0  0  0  0  0
   -2.3434   -5.9460   -5.5376 C   0  0  0  0  0  0  0  0  0  0  0  0
   -3.3301   -6.3103   -5.2433 H   0  0  0  0  0  0  0  0  0  0  0  0
   -1.1919   -6.4748   -4.9280 C   0  0  0  0  0  0  0  0  0  0  0  0
   -1.3550   -7.4842   -3.8079 C   0  0  1  0  0  0  0  0  0  0  0  0
   -2.4210   -7.5739   -3.5780 H   0  0  0  0  0  0  0  0  0  0  0  0
   -0.9091   -8.7435   -4.3205 O   0  0  0  0  0  0  0  0  0  0  0  0
   -1.3491   -9.4191   -3.7629 H   0  0  0  0  0  0  0  0  0  0  0  0
   -0.5884   -7.1326   -2.5113 C   0  0  1  0  0  0  0  0  0  0  0  0
    0.4697   -6.9856   -2.7344 H   0  0  0  0  0  0  0  0  0  0  0  0
   -1.1667   -5.9900   -1.8235 O   0  0  0  0  0  0  0  0  0  0  0  0
   -0.7230   -4.7541   -2.2287 C   0  0  0  0  0  0  0  0  0  0  0  0
   -1.6597   -3.7614   -2.5627 C   0  0  0  0  0  0  0  0  0  0  0  0
   -3.0284   -3.8630   -2.5375 O   0  0  0  0  0  0  0  0  0  0  0  0
   -3.5971   -4.7901   -1.6223 C   0  0  0  0  0  0  0  0  0  0  0  0
   -3.5918   -5.8009   -2.0373 H   0  0  0  0  0  0  0  0  0  0  0  0
   -3.1113   -4.7548   -0.6406 H   0  0  0  0  0  0  0  0  0  0  0  0
   -4.6430   -4.5049   -1.4724 H   0  0  0  0  0  0  0  0  0  0  0  0
   -1.2147   -2.5123   -3.0496 C   0  0  0  0  0  0  0  0  0  0  0  0
   -1.9768   -1.7769   -3.3211 H   0  0  0  0  0  0  0  0  0  0  0  0
    0.1458   -2.2193   -3.2105 C   0  0  0  0  0  0  0  0  0  0  0  0
    0.6714   -0.9234   -3.8228 C   0  0  1  0  0  0  0  0  0  0  0  0
    1.4113   -1.2436   -4.5584 H   0  0  0  0  0  0  0  0  0  0  0  0
   -0.4235   -0.1917   -4.4089 O   0  0  0  0  0  0  0  0  0  0  0  0
   -0.7048   -0.0805   -5.7337 C   0  0  0  0  0  0  0  0  0  0  0  0
    0.1758   -0.2318   -6.8142 C   0  0  0  0  0  0  0  0  0  0  0  0
    1.5082   -0.4059   -6.5545 O   0  0  0  0  0  0  0  0  0  0  0  0
    2.2999   -0.9916   -7.5816 C   0  0  0  0  0  0  0  0  0  0  0  0
    2.5235   -0.2613   -8.3641 H   0  0  0  0  0  0  0  0  0  0  0  0
    3.2476   -1.2929   -7.1224 H   0  0  0  0  0  0  0  0  0  0  0  0
    1.8337   -1.8934   -7.9942 H   0  0  0  0  0  0  0  0  0  0  0  0
   -0.3154   -0.1118   -8.1301 C   0  0  0  0  0  0  0  0  0  0  0  0
    0.3514   -0.1851   -8.9814 H   0  0  0  0  0  0  0  0  0  0  0  0
   -1.6685    0.1458   -8.3862 C   0  0  0  0  0  0  0  0  0  0  0  0
   -2.2124    0.2925   -9.7406 C   0  0  0  0  0  0  0  0  0  0  0  0
   -2.8763    1.1426   -9.8903 H   0  0  0  0  0  0  0  0  0  0  0  0
   -1.9770   -0.5644  -10.7460 C   0  0  0  0  0  0  0  0  0  0  0  0
   -1.3460   -1.4312  -10.5811 H   0  0  0  0  0  0  0  0  0  0  0  0
   -2.5818   -0.4663  -12.1123 C   0  0  0  0  0  0  0  0  0  0  0  0
   -1.7986   -0.3081  -12.8643 H   0  0  0  0  0  0  0  0  0  0  0  0
   -3.1113   -1.3978  -12.3414 H   0  0  0  0  0  0  0  0  0  0  0  0
   -3.5077    0.6098  -12.1899 O   0  0  0  0  0  0  0  0  0  0  0  0
   -3.9926    0.5110  -13.0257 H   0  0  0  0  0  0  0  0  0  0  0  0
   -2.5287    0.3458   -7.3089 C   0  0  0  0  0  0  0  0  0  0  0  0
   -3.5808    0.5663   -7.4706 H   0  0  0  0  0  0  0  0  0  0  0  0
   -2.0474    0.2621   -6.0026 C   0  0  0  0  0  0  0  0  0  0  0  0
   -3.0051    0.4802   -5.0380 O   0  0  0  0  0  0  0  0  0  0  0  0
   -2.6367    1.4921   -4.0964 C   0  0  0  0  0  0  0  0  0  0  0  0
   -1.9122    2.2104   -4.5032 H   0  0  0  0  0  0  0  0  0  0  0  0
   -3.5424    2.0441   -3.8328 H   0  0  0  0  0  0  0  0  0  0  0  0
   -2.2465    1.0328   -3.1846 H   0  0  0  0  0  0  0  0  0  0  0  0
    1.3287    0.1000   -2.8399 C   0  0  1  0  0  0  0  0  0  0  0  0
    0.5490    0.7551   -2.4595 H   0  0  0  0  0  0  0  0  0  0  0  0
    2.1651   -0.4376   -1.7951 O   0  0  0  0  0  0  0  0  0  0  0  0
    1.5987   -0.7451   -0.5780 C   0  0  0  0  0  0  0  0  0  0  0  0
    2.1490   -1.8360    0.1212 C   0  0  0  0  0  0  0  0  0  0  0  0
    3.2862   -2.5474   -0.2097 O   0  0  0  0  0  0  0  0  0  0  0  0
    4.3692   -1.9045   -0.7527 C   0  0  0  0  0  0  0  0  0  0  0  0
    4.9809   -0.7766   -0.1966 C   0  0  0  0  0  0  0  0  0  0  0  0
    4.5586   -0.3097    1.0226 O   0  0  0  0  0  0  0  0  0  0  0  0
    4.2525    1.0854    1.0070 C   0  0  0  0  0  0  0  0  0  0  0  0
    5.1467    1.7029    0.8701 H   0  0  0  0  0  0  0  0  0  0  0  0
    3.5131    1.3170    0.2348 H   0  0  0  0  0  0  0  0  0  0  0  0
    3.8190    1.3409    1.9803 H   0  0  0  0  0  0  0  0  0  0  0  0
    6.0998   -0.2152   -0.8278 C   0  0  0  0  0  0  0  0  0  0  0  0
    6.6114    0.6237   -0.3699 H   0  0  0  0  0  0  0  0  0  0  0  0
    6.5904   -0.7448   -2.0315 C   0  0  0  0  0  0  0  0  0  0  0  0
    7.7512   -0.1730   -2.7277 C   0  0  0  0  0  0  0  0  0  0  0  0
    8.4383   -0.8916   -3.1742 H   0  0  0  0  0  0  0  0  0  0  0  0
    7.9767    1.1430   -2.8669 C   0  0  0  0  0  0  0  0  0  0  0  0
    7.2738    1.8620   -2.4505 H   0  0  0  0  0  0  0  0  0  0  0  0
    9.1287    1.7567   -3.6009 C   0  0  0  0  0  0  0  0  0  0  0  0
    8.7624    2.3325   -4.4553 H   0  0  0  0  0  0  0  0  0  0  0  0
    9.6845    2.4219   -2.9340 H   0  0  0  0  0  0  0  0  0  0  0  0
   10.0146    0.7577   -4.0810 O   0  0  0  0  0  0  0  0  0  0  0  0
   10.6989    1.2158   -4.5949 H   0  0  0  0  0  0  0  0  0  0  0  0
    6.0109   -1.9018   -2.5489 C   0  0  0  0  0  0  0  0  0  0  0  0
    6.3895   -2.3560   -3.4644 H   0  0  0  0  0  0  0  0  0  0  0  0
    4.9378   -2.4960   -1.8920 C   0  0  0  0  0  0  0  0  0  0  0  0
    4.4210   -3.6454   -2.4318 O   0  0  0  0  0  0  0  0  0  0  0  0
    5.0359   -4.7901   -1.8327 C   0  0  0  0  0  0  0  0  0  0  0  0
    4.8784   -4.8203   -0.7476 H   0  0  0  0  0  0  0  0  0  0  0  0
    4.5792   -5.6802   -2.2716 H   0  0  0  0  0  0  0  0  0  0  0  0
    6.1091   -4.8075   -2.0638 H   0  0  0  0  0  0  0  0  0  0  0  0
    1.4553   -2.3980    1.2005 C   0  0  0  0  0  0  0  0  0  0  0  0
    1.8407   -3.2982    1.6732 H   0  0  0  0  0  0  0  0  0  0  0  0
    0.2379   -1.8655    1.6088 C   0  0  0  0  0  0  0  0  0  0  0  0
   -0.6453   -2.6353    2.4809 C   0  0  0  0  0  0  0  0  0  0  0  0
   -0.6892   -2.3966    3.5402 H   0  0  0  0  0  0  0  0  0  0  0  0
   -1.3905   -3.6056    1.9221 C   0  0  0  0  0  0  0  0  0  0  0  0
   -1.3084   -3.7758    0.8480 H   0  0  0  0  0  0  0  0  0  0  0  0
   -2.3654   -4.5093    2.5997 C   0  0  0  0  0  0  0  0  0  0  0  0
   -3.3659   -4.3371    2.1982 H   0  0  0  0  0  0  0  0  0  0  0  0
   -2.0873   -5.5555    2.4292 H   0  0  0  0  0  0  0  0  0  0  0  0
   -2.3855   -4.2764    3.9987 O   0  0  0  0  0  0  0  0  0  0  0  0
   -3.1845   -4.7213    4.3372 H   0  0  0  0  0  0  0  0  0  0  0  0
   -0.1851   -0.6526    1.0693 C   0  0  0  0  0  0  0  0  0  0  0  0
   -1.1064   -0.1943    1.4321 H   0  0  0  0  0  0  0  0  0  0  0  0
    0.5291   -0.0584    0.0229 C   0  0  0  0  0  0  0  0  0  0  0  0
    0.1537    1.1748   -0.4397 O   0  0  0  0  0  0  0  0  0  0  0  0
    0.0572    2.1595    0.5830 C   0  0  0  0  0  0  0  0  0  0  0  0
   -0.9010    2.0859    1.1045 H   0  0  0  0  0  0  0  0  0  0  0  0
    0.8930    2.1016    1.2893 H   0  0  0  0  0  0  0  0  0  0  0  0
    0.0986    3.1432    0.1029 H   0  0  0  0  0  0  0  0  0  0  0  0
    2.2668    1.0229   -3.6549 C   0  0  0  0  0  0  0  0  0  0  0  0
    3.0863    0.4519   -4.0996 H   0  0  0  0  0  0  0  0  0  0  0  0
    1.7281    1.5450   -4.4510 H   0  0  0  0  0  0  0  0  0  0  0  0
    2.8645    2.0148   -2.8082 O   0  0  0  0  0  0  0  0  0  0  0  0
    3.2085    1.5085   -2.0494 H   0  0  0  0  0  0  0  0  0  0  0  0
    1.0597   -3.2102   -2.8316 C   0  0  0  0  0  0  0  0  0  0  0  0
    2.1250   -3.0222   -2.9429 H   0  0  0  0  0  0  0  0  0  0  0  0
    0.6422   -4.4335   -2.2949 C   0  0  0  0  0  0  0  0  0  0  0  0
    1.6411   -5.2882   -1.9065 O   0  0  0  0  0  0  0  0  0  0  0  0
    1.6437   -5.5006   -0.4983 C   0  0  0  0  0  0  0  0  0  0  0  0
    2.4838   -4.9635   -0.0616 H   0  0  0  0  0  0  0  0  0  0  0  0
    0.7174   -5.2120    0.0116 H   0  0  0  0  0  0  0  0  0  0  0  0
    1.8120   -6.5688   -0.3151 H   0  0  0  0  0  0  0  0  0  0  0  0
   -0.6190   -8.2968   -1.5048 C   0  0  0  0  0  0  0  0  0  0  0  0
    0.1543   -9.0383   -1.7596 H   0  0  0  0  0  0  0  0  0  0  0  0
   -0.4335   -7.9433   -0.4837 H   0  0  0  0  0  0  0  0  0  0  0  0
   -1.8781   -8.9820   -1.5010 O   0  0  0  0  0  0  0  0  0  0  0  0
   -1.8181   -9.6914   -0.8321 H   0  0  0  0  0  0  0  0  0  0  0  0
    0.0656   -6.0203   -5.3623 C   0  0  0  0  0  0  0  0  0  0  0  0
    0.9527   -6.4686   -4.9294 H   0  0  0  0  0  0  0  0  0  0  0  0
    0.1679   -4.9970   -6.3053 C   0  0  0  0  0  0  0  0  0  0  0  0
    1.3397   -4.4425   -6.7426 O   0  0  0  0  0  0  0  0  0  0  0  0
    2.5582   -4.9088   -6.1786 C   0  0  0  0  0  0  0  0  0  0  0  0
    2.5438   -4.8888   -5.0832 H   0  0  0  0  0  0  0  0  0  0  0  0
    2.7959   -5.9085   -6.5568 H   0  0  0  0  0  0  0  0  0  0  0  0
    3.3447   -4.2142   -6.4998 H   0  0  0  0  0  0  0  0  0  0  0  0
  1  2  1  0
  2  3  1  0
  3  4  2  0
  3133  1  0
  4  5  1  0
  4 10  1  0
  5  6  1  0
  6  7  1  0
  6  8  1  0
  6  9  1  0
 10 11  1  0
 10 12  2  0
 12 13  1  0
 12131  1  0
 13 14  1  1
 13 15  1  0
 13 17  1  0
 15 16  1  0
 17 18  1  6
 17 19  1  0
 17126  1  0
 19 20  1  0
 20 21  2  0
 20120  1  0
 21 22  1  0
 21 27  1  0
 22 23  1  0
 23 24  1  0
 23 25  1  0
 23 26  1  0
 27 28  1  0
 27 29  2  0
 29 30  1  0
 29118  1  0
 30 31  1  6
 30 32  1  0
 30 60  1  0
 32 33  1  0
 33 34  2  0
 33 54  1  0
 34 35  1  0
 34 40  1  0
 35 36  1  0
 36 37  1  0
 36 38  1  0
 36 39  1  0
 40 41  1  0
 40 42  2  0
 42 43  1  0
 42 52  1  0
 43 44  1  0
 43 45  2  0
 45 46  1  0
 45 47  1  0
 47 48  1  0
 47 49  1  0
 47 50  1  0
 50 51  1  0
 52 53  1  0
 52 54  2  0
 54 55  1  0
 55 56  1  0
 56 57  1  0
 56 58  1  0
 56 59  1  0
 60 61  1  1
 60 62  1  0
 60113  1  0
 62 63  1  0
 63 64  1  0
 63107  2  0
 64 65  1  0
 64 93  2  0
 65 66  1  0
 66 67  2  0
 66 87  1  0
 67 68  1  0
 67 73  1  0
 68 69  1  0
 69 70  1  0
 69 71  1  0
 69 72  1  0
 73 74  1  0
 73 75  2  0
 75 76  1  0
 75 85  1  0
 76 77  1  0
 76 78  2  0
 78 79  1  0
 78 80  1  0
 80 81  1  0
 80 82  1  0
 80 83  1  0
 83 84  1  0
 85 86  1  0
 85 87  2  0
 87 88  1  0
 88 89  1  0
 89 90  1  0
 89 91  1  0
 89 92  1  0
 93 94  1  0
 93 95  1  0
 95 96  1  0
 95105  2  0
 96 97  1  0
 96 98  2  0
 98 99  1  0
 98100  1  0
100101  1  0
100102  1  0
100103  1  0
103104  1  0
105106  1  0
105107  1  0
107108  1  0
108109  1  0
109110  1  0
109111  1  0
109112  1  0
113114  1  0
113115  1  0
113116  1  0
116117  1  0
118119  1  0
118120  2  0
120121  1  0
121122  1  0
122123  1  0
122124  1  0
122125  1  0
126127  1  0
126128  1  0
126129  1  0
129130  1  0
131132  1  0
131133  2  0
133134  1  0
134135  1  0
135136  1  0
135137  1  0
135138  1  0
M  END
