
     RDKit          3D

160165  0  0  1  0  0  0  0  0999 V2000
    2.1293    2.8377   -1.8080 H   0  0  0  0  0  0  0  0  0  0  0  0
    2.2688    2.1058   -1.1779 O   0  0  0  0  0  0  0  0  0  0  0  0
    2.1861    0.9413   -1.8897 C   0  0  0  0  0  0  0  0  0  0  0  0
    2.8526   -0.2118   -1.4849 C   0  0  0  0  0  0  0  0  0  0  0  0
    3.5481   -0.4414   -0.3167 O   0  0  0  0  0  0  0  0  0  0  0  0
    3.8586    0.6114    0.5015 C   0  0  0  0  0  0  0  0  0  0  0  0
    2.9964    1.0752    1.5004 C   0  0  0  0  0  0  0  0  0  0  0  0
    1.7714    0.5647    1.8417 O   0  0  0  0  0  0  0  0  0  0  0  0
    1.6467   -0.8504    1.7585 C   0  0  0  0  0  0  0  0  0  0  0  0
    2.5731   -1.3742    2.0239 H   0  0  0  0  0  0  0  0  0  0  0  0
    0.8766   -1.1536    2.4705 H   0  0  0  0  0  0  0  0  0  0  0  0
    1.3017   -1.1405    0.7593 H   0  0  0  0  0  0  0  0  0  0  0  0
    3.3774    2.1672    2.2819 C   0  0  0  0  0  0  0  0  0  0  0  0
    2.6538    2.5454    2.9988 H   0  0  0  0  0  0  0  0  0  0  0  0
    4.6728    2.6906    2.2238 C   0  0  0  0  0  0  0  0  0  0  0  0
    5.1605    3.7805    3.1825 C   0  0  1  0  0  0  0  0  0  0  0  0
    6.0972    3.3737    3.5867 H   0  0  0  0  0  0  0  0  0  0  0  0
    5.5889    5.0263    2.5406 O   0  0  0  0  0  0  0  0  0  0  0  0
    5.0095    5.3913    1.3523 C   0  0  0  0  0  0  0  0  0  0  0  0
    5.8398    5.7095    0.2635 C   0  0  0  0  0  0  0  0  0  0  0  0
    7.1881    5.9187    0.4157 O   0  0  0  0  0  0  0  0  0  0  0  0
    7.9301    4.7112    0.3272 C   0  0  0  0  0  0  0  0  0  0  0  0
    7.5377    4.0094   -0.4284 H   0  0  0  0  0  0  0  0  0  0  0  0
    7.9850    4.2376    1.3110 H   0  0  0  0  0  0  0  0  0  0  0  0
    8.9507    4.9661    0.0300 H   0  0  0  0  0  0  0  0  0  0  0  0
    5.2978    6.0430   -0.9873 C   0  0  0  0  0  0  0  0  0  0  0  0
    5.9700    6.3092   -1.8010 H   0  0  0  0  0  0  0  0  0  0  0  0
    3.9117    6.0610   -1.1831 C   0  0  0  0  0  0  0  0  0  0  0  0
    3.2868    6.4634   -2.4412 C   0  0  0  0  0  0  0  0  0  0  0  0
    2.4075    7.0959   -2.3389 H   0  0  0  0  0  0  0  0  0  0  0  0
    3.6775    6.0800   -3.6647 C   0  0  0  0  0  0  0  0  0  0  0  0
    4.5342    5.4227   -3.7821 H   0  0  0  0  0  0  0  0  0  0  0  0
    2.9915    6.4580   -4.9492 C   0  0  0  0  0  0  0  0  0  0  0  0
    3.7021    6.9350   -5.6341 H   0  0  0  0  0  0  0  0  0  0  0  0
    2.5972    5.5538   -5.4287 H   0  0  0  0  0  0  0  0  0  0  0  0
    1.9230    7.3604   -4.7132 O   0  0  0  0  0  0  0  0  0  0  0  0
    1.3223    7.2988   -5.4769 H   0  0  0  0  0  0  0  0  0  0  0  0
    3.0883    5.8388   -0.0816 C   0  0  0  0  0  0  0  0  0  0  0  0
    2.0069    5.9199   -0.1772 H   0  0  0  0  0  0  0  0  0  0  0  0
    3.6307    5.5601    1.1775 C   0  0  0  0  0  0  0  0  0  0  0  0
    2.7606    5.5191    2.2405 O   0  0  0  0  0  0  0  0  0  0  0  0
    2.5730    6.8421    2.7527 C   0  0  0  0  0  0  0  0  0  0  0  0
    1.9461    6.7733    3.6447 H   0  0  0  0  0  0  0  0  0  0  0  0
    3.5314    7.3029    3.0305 H   0  0  0  0  0  0  0  0  0  0  0  0
    2.0429    7.4766    2.0293 H   0  0  0  0  0  0  0  0  0  0  0  0
    4.2825    4.0603    4.4534 C   0  0  1  0  0  0  0  0  0  0  0  0
    3.2975    4.4011    4.1235 H   0  0  0  0  0  0  0  0  0  0  0  0
    3.9040    2.9156    5.2745 O   0  0  0  0  0  0  0  0  0  0  0  0
    4.8925    2.0572    5.6872 C   0  0  0  0  0  0  0  0  0  0  0  0
    5.7428    2.4279    6.7101 C   0  0  0  0  0  0  0  0  0  0  0  0
    5.6492    3.3831    7.2109 H   0  0  0  0  0  0  0  0  0  0  0  0
    6.7279    1.5476    7.1497 C   0  0  0  0  0  0  0  0  0  0  0  0
    7.3640    1.8618    7.9722 H   0  0  0  0  0  0  0  0  0  0  0  0
    6.9541    0.3131    6.5170 C   0  0  0  0  0  0  0  0  0  0  0  0
    8.1340   -0.5327    6.9781 C   0  0  1  0  0  0  0  0  0  0  0  0
    8.3391   -0.2741    8.0256 H   0  0  0  0  0  0  0  0  0  0  0  0
    7.9480   -1.9748    6.9555 O   0  0  0  0  0  0  0  0  0  0  0  0
    6.8054   -2.5712    7.4064 C   0  0  0  0  0  0  0  0  0  0  0  0
    5.9677   -2.1223    8.4336 C   0  0  0  0  0  0  0  0  0  0  0  0
    6.2879   -1.0504    9.2239 O   0  0  0  0  0  0  0  0  0  0  0  0
    7.1272   -1.4661   10.3034 C   0  0  0  0  0  0  0  0  0  0  0  0
    7.6745   -0.5894   10.6714 H   0  0  0  0  0  0  0  0  0  0  0  0
    6.5066   -1.8520   11.1191 H   0  0  0  0  0  0  0  0  0  0  0  0
    7.8568   -2.2237   10.0070 H   0  0  0  0  0  0  0  0  0  0  0  0
    4.7393   -2.7558    8.6803 C   0  0  0  0  0  0  0  0  0  0  0  0
    4.0793   -2.3548    9.4491 H   0  0  0  0  0  0  0  0  0  0  0  0
    4.3597   -3.8785    7.9469 C   0  0  0  0  0  0  0  0  0  0  0  0
    3.0731   -4.5457    8.1598 C   0  0  0  0  0  0  0  0  0  0  0  0
    3.1004   -5.5256    8.6292 H   0  0  0  0  0  0  0  0  0  0  0  0
    1.9174   -4.0037    7.7418 C   0  0  0  0  0  0  0  0  0  0  0  0
    1.9378   -3.0341    7.2506 H   0  0  0  0  0  0  0  0  0  0  0  0
    0.5607   -4.6223    7.8547 C   0  0  0  0  0  0  0  0  0  0  0  0
   -0.0949   -3.9751    8.4452 H   0  0  0  0  0  0  0  0  0  0  0  0
    0.1307   -4.7442    6.8549 H   0  0  0  0  0  0  0  0  0  0  0  0
    0.6192   -5.8972    8.4717 O   0  0  0  0  0  0  0  0  0  0  0  0
   -0.2623   -6.2912    8.3706 H   0  0  0  0  0  0  0  0  0  0  0  0
    5.2304   -4.3946    6.9904 C   0  0  0  0  0  0  0  0  0  0  0  0
    4.9677   -5.2834    6.4228 H   0  0  0  0  0  0  0  0  0  0  0  0
    6.4544   -3.7613    6.7511 C   0  0  0  0  0  0  0  0  0  0  0  0
    7.2600   -4.3408    5.8013 O   0  0  0  0  0  0  0  0  0  0  0  0
    8.4127   -4.9176    6.4116 C   0  0  0  0  0  0  0  0  0  0  0  0
    9.2516   -4.2125    6.3495 H   0  0  0  0  0  0  0  0  0  0  0  0
    8.2501   -5.2133    7.4596 H   0  0  0  0  0  0  0  0  0  0  0  0
    8.6852   -5.8172    5.8469 H   0  0  0  0  0  0  0  0  0  0  0  0
    9.4745   -0.2653    6.1941 C   0  0  2  0  0  0  0  0  0  0  0  0
   10.2541   -0.8670    6.6867 H   0  0  0  0  0  0  0  0  0  0  0  0
    9.9268    1.1132    6.1011 O   0  0  0  0  0  0  0  0  0  0  0  0
   10.1522    1.8049    7.2555 C   0  0  0  0  0  0  0  0  0  0  0  0
   10.8779    1.3048    8.3371 C   0  0  0  0  0  0  0  0  0  0  0  0
   11.6900    0.2060    8.2284 O   0  0  0  0  0  0  0  0  0  0  0  0
   12.8631    0.5694    7.4893 C   0  0  0  0  0  0  0  0  0  0  0  0
   12.6614    0.5630    6.4163 H   0  0  0  0  0  0  0  0  0  0  0  0
   13.6333   -0.1852    7.6962 H   0  0  0  0  0  0  0  0  0  0  0  0
   13.2639    1.5433    7.7992 H   0  0  0  0  0  0  0  0  0  0  0  0
   10.8397    1.9353    9.5789 C   0  0  0  0  0  0  0  0  0  0  0  0
   11.3734    1.4863   10.4096 H   0  0  0  0  0  0  0  0  0  0  0  0
   10.1220    3.1253    9.7473 C   0  0  0  0  0  0  0  0  0  0  0  0
    9.9360    3.7540   11.0691 C   0  0  0  0  0  0  0  0  0  0  0  0
    9.7512    4.8303   11.0705 H   0  0  0  0  0  0  0  0  0  0  0  0
    9.8977    3.0711   12.2292 C   0  0  0  0  0  0  0  0  0  0  0  0
   10.0489    2.0004   12.2274 H   0  0  0  0  0  0  0  0  0  0  0  0
    9.6080    3.6381   13.5852 C   0  0  0  0  0  0  0  0  0  0  0  0
    8.7416    3.1218   14.0113 H   0  0  0  0  0  0  0  0  0  0  0  0
   10.4692    3.4926   14.2391 H   0  0  0  0  0  0  0  0  0  0  0  0
    9.3159    5.0209   13.5092 O   0  0  0  0  0  0  0  0  0  0  0  0
    8.9016    5.2603   14.3523 H   0  0  0  0  0  0  0  0  0  0  0  0
    9.5738    3.7315    8.6143 C   0  0  0  0  0  0  0  0  0  0  0  0
    9.0543    4.6887    8.6993 H   0  0  0  0  0  0  0  0  0  0  0  0
    9.6110    3.0952    7.3694 C   0  0  0  0  0  0  0  0  0  0  0  0
    8.9479    3.7481    6.3546 O   0  0  0  0  0  0  0  0  0  0  0  0
    9.7687    3.9508    5.2060 C   0  0  0  0  0  0  0  0  0  0  0  0
   10.7302    4.4097    5.4784 H   0  0  0  0  0  0  0  0  0  0  0  0
    9.9331    3.0288    4.6414 H   0  0  0  0  0  0  0  0  0  0  0  0
    9.2455    4.6475    4.5444 H   0  0  0  0  0  0  0  0  0  0  0  0
    9.4424   -0.8119    4.7459 C   0  0  0  0  0  0  0  0  0  0  0  0
   10.4706   -0.8449    4.3584 H   0  0  0  0  0  0  0  0  0  0  0  0
    9.0407   -1.8336    4.7063 H   0  0  0  0  0  0  0  0  0  0  0  0
    8.7019    0.0217    3.8598 O   0  0  0  0  0  0  0  0  0  0  0  0
    8.6124   -0.4545    3.0165 H   0  0  0  0  0  0  0  0  0  0  0  0
    6.0439   -0.0855    5.5375 C   0  0  0  0  0  0  0  0  0  0  0  0
    6.1424   -1.0480    5.0492 H   0  0  0  0  0  0  0  0  0  0  0  0
    4.9674    0.7416    5.1991 C   0  0  0  0  0  0  0  0  0  0  0  0
    4.0341    0.2101    4.3559 O   0  0  0  0  0  0  0  0  0  0  0  0
    2.8064   -0.0467    5.0326 C   0  0  0  0  0  0  0  0  0  0  0  0
    2.5847   -1.1120    4.9350 H   0  0  0  0  0  0  0  0  0  0  0  0
    2.0043    0.5183    4.5486 H   0  0  0  0  0  0  0  0  0  0  0  0
    2.8144    0.1993    6.1011 H   0  0  0  0  0  0  0  0  0  0  0  0
    4.8330    5.2379    5.2761 C   0  0  0  0  0  0  0  0  0  0  0  0
    5.8138    5.0182    5.7107 H   0  0  0  0  0  0  0  0  0  0  0  0
    4.9574    6.1301    4.6518 H   0  0  0  0  0  0  0  0  0  0  0  0
    3.9259    5.6026    6.3222 O   0  0  0  0  0  0  0  0  0  0  0  0
    4.2101    5.1448    7.1269 H   0  0  0  0  0  0  0  0  0  0  0  0
    5.5540    2.1628    1.2671 C   0  0  0  0  0  0  0  0  0  0  0  0
    6.5602    2.5459    1.1887 H   0  0  0  0  0  0  0  0  0  0  0  0
    5.1397    1.1590    0.3909 C   0  0  0  0  0  0  0  0  0  0  0  0
    5.9519    0.7629   -0.6436 O   0  0  0  0  0  0  0  0  0  0  0  0
    7.0412   -0.0200   -0.1727 C   0  0  0  0  0  0  0  0  0  0  0  0
    6.7191   -0.7717    0.5615 H   0  0  0  0  0  0  0  0  0  0  0  0
    7.8281    0.6173    0.2475 H   0  0  0  0  0  0  0  0  0  0  0  0
    7.4670   -0.5591   -1.0292 H   0  0  0  0  0  0  0  0  0  0  0  0
    2.8224   -1.3430   -2.3183 C   0  0  0  0  0  0  0  0  0  0  0  0
    3.3970   -2.2155   -2.0023 H   0  0  0  0  0  0  0  0  0  0  0  0
    2.1332   -1.3526   -3.5291 C   0  0  0  0  0  0  0  0  0  0  0  0
    2.1478   -2.5079   -4.4375 C   0  0  0  0  0  0  0  0  0  0  0  0
    1.9159   -2.2852   -5.4799 H   0  0  0  0  0  0  0  0  0  0  0  0
    2.4018   -3.7798   -4.0842 C   0  0  0  0  0  0  0  0  0  0  0  0
    2.6204   -4.0203   -3.0466 H   0  0  0  0  0  0  0  0  0  0  0  0
    2.4221   -4.9619   -4.9957 C   0  0  0  0  0  0  0  0  0  0  0  0
    3.4453   -5.3354   -5.0971 H   0  0  0  0  0  0  0  0  0  0  0  0
    1.7992   -5.7535   -4.5685 H   0  0  0  0  0  0  0  0  0  0  0  0
    1.9169   -4.6389   -6.2758 O   0  0  0  0  0  0  0  0  0  0  0  0
    1.8683   -5.4727   -6.7702 H   0  0  0  0  0  0  0  0  0  0  0  0
    1.4185   -0.2019   -3.8927 C   0  0  0  0  0  0  0  0  0  0  0  0
    0.8637   -0.1665   -4.8237 H   0  0  0  0  0  0  0  0  0  0  0  0
    1.4213    0.9215   -3.0610 C   0  0  0  0  0  0  0  0  0  0  0  0
    0.6719    1.9965   -3.4671 O   0  0  0  0  0  0  0  0  0  0  0  0
   -0.3754    2.2996   -2.5312 C   0  0  0  0  0  0  0  0  0  0  0  0
   -0.1060    3.2001   -1.9658 H   0  0  0  0  0  0  0  0  0  0  0  0
   -1.2819    2.5187   -3.1021 H   0  0  0  0  0  0  0  0  0  0  0  0
   -0.6003    1.4804   -1.8362 H   0  0  0  0  0  0  0  0  0  0  0  0
  1  2  1  0
  2  3  1  0
  3  4  2  0
  3155  1  0
  4  5  1  0
  4141  1  0
  5  6  1  0
  6  7  2  0
  6135  1  0
  7  8  1  0
  7 13  1  0
  8  9  1  0
  9 10  1  0
  9 11  1  0
  9 12  1  0
 13 14  1  0
 13 15  2  0
 15 16  1  0
 15133  1  0
 16 17  1  1
 16 18  1  0
 16 46  1  0
 18 19  1  0
 19 20  2  0
 19 40  1  0
 20 21  1  0
 20 26  1  0
 21 22  1  0
 22 23  1  0
 22 24  1  0
 22 25  1  0
 26 27  1  0
 26 28  2  0
 28 29  1  0
 28 38  1  0
 29 30  1  0
 29 31  2  0
 31 32  1  0
 31 33  1  0
 33 34  1  0
 33 35  1  0
 33 36  1  0
 36 37  1  0
 38 39  1  0
 38 40  2  0
 40 41  1  0
 41 42  1  0
 42 43  1  0
 42 44  1  0
 42 45  1  0
 46 47  1  6
 46 48  1  0
 46128  1  0
 48 49  1  0
 49 50  2  0
 49122  1  0
 50 51  1  0
 50 52  1  0
 52 53  1  0
 52 54  2  0
 54 55  1  0
 54120  1  0
 55 56  1  1
 55 57  1  0
 55 85  1  0
 57 58  1  0
 58 59  2  0
 58 79  1  0
 59 60  1  0
 59 65  1  0
 60 61  1  0
 61 62  1  0
 61 63  1  0
 61 64  1  0
 65 66  1  0
 65 67  2  0
 67 68  1  0
 67 77  1  0
 68 69  1  0
 68 70  2  0
 70 71  1  0
 70 72  1  0
 72 73  1  0
 72 74  1  0
 72 75  1  0
 75 76  1  0
 77 78  1  0
 77 79  2  0
 79 80  1  0
 80 81  1  0
 81 82  1  0
 81 83  1  0
 81 84  1  0
 85 86  1  6
 85 87  1  0
 85115  1  0
 87 88  1  0
 88 89  2  0
 88109  1  0
 89 90  1  0
 89 95  1  0
 90 91  1  0
 91 92  1  0
 91 93  1  0
 91 94  1  0
 95 96  1  0
 95 97  2  0
 97 98  1  0
 97107  1  0
 98 99  1  0
 98100  2  0
100101  1  0
100102  1  0
102103  1  0
102104  1  0
102105  1  0
105106  1  0
107108  1  0
107109  2  0
109110  1  0
110111  1  0
111112  1  0
111113  1  0
111114  1  0
115116  1  0
115117  1  0
115118  1  0
118119  1  0
120121  1  0
120122  2  0
122123  1  0
123124  1  0
124125  1  0
124126  1  0
124127  1  0
128129  1  0
128130  1  0
128131  1  0
131132  1  0
133134  1  0
133135  2  0
135136  1  0
136137  1  0
137138  1  0
137139  1  0
137140  1  0
141142  1  0
141143  2  0
143144  1  0
143153  1  0
144145  1  0
144146  2  0
146147  1  0
146148  1  0
148149  1  0
148150  1  0
148151  1  0
151152  1  0
153154  1  0
153155  2  0
155156  1  0
156157  1  0
157158  1  0
157159  1  0
157160  1  0
M  END
