
     RDKit          3D

206213  0  0  1  0  0  0  0  0999 V2000
    0.0669   -1.8899   -4.8313 H   0  0  0  0  0  0  0  0  0  0  0  0
    0.2138   -1.1519   -4.2129 O   0  0  0  0  0  0  0  0  0  0  0  0
    0.9535   -1.6682   -3.1907 C   0  0  0  0  0  0  0  0  0  0  0  0
    1.0499   -0.9893   -1.9796 C   0  0  0  0  0  0  0  0  0  0  0  0
    0.4024    0.2241   -1.8588 O   0  0  0  0  0  0  0  0  0  0  0  0
    1.0663    1.2961   -1.2926 C   0  0  0  0  0  0  0  0  0  0  0  0
    2.0991    1.9718   -1.9522 C   0  0  0  0  0  0  0  0  0  0  0  0
    2.7065    1.4931   -3.0917 O   0  0  0  0  0  0  0  0  0  0  0  0
    3.7691    0.6119   -2.9161 C   0  0  0  0  0  0  0  0  0  0  0  0
    4.3333    0.3782   -1.6548 C   0  0  0  0  0  0  0  0  0  0  0  0
    4.0295    0.9440   -0.7732 H   0  0  0  0  0  0  0  0  0  0  0  0
    5.2734   -0.6254   -1.4556 C   0  0  0  0  0  0  0  0  0  0  0  0
    5.6203   -0.8222   -0.4414 H   0  0  0  0  0  0  0  0  0  0  0  0
    5.7029   -1.4147   -2.5331 C   0  0  0  0  0  0  0  0  0  0  0  0
    6.5138   -2.6207   -2.3010 C   0  0  0  0  0  0  0  0  0  0  0  0
    6.2585   -3.4846   -2.9021 H   0  0  0  0  0  0  0  0  0  0  0  0
    7.4144   -2.7189   -1.3131 C   0  0  0  0  0  0  0  0  0  0  0  0
    7.6832   -1.8576   -0.7019 H   0  0  0  0  0  0  0  0  0  0  0  0
    8.0425   -4.0171   -0.9073 C   0  0  0  0  0  0  0  0  0  0  0  0
    8.4786   -4.5452   -1.7604 H   0  0  0  0  0  0  0  0  0  0  0  0
    8.8313   -3.8432   -0.1581 H   0  0  0  0  0  0  0  0  0  0  0  0
    7.0474   -4.8534   -0.3043 O   0  0  0  0  0  0  0  0  0  0  0  0
    6.4049   -4.2616    0.1378 H   0  0  0  0  0  0  0  0  0  0  0  0
    5.2208   -1.1045   -3.8107 C   0  0  0  0  0  0  0  0  0  0  0  0
    5.5670   -1.6763   -4.6671 H   0  0  0  0  0  0  0  0  0  0  0  0
    4.2603   -0.1006   -4.0237 C   0  0  0  0  0  0  0  0  0  0  0  0
    3.9221    0.0324   -5.3480 O   0  0  0  0  0  0  0  0  0  0  0  0
    2.7975    0.8315   -5.6861 C   0  0  0  0  0  0  0  0  0  0  0  0
    1.8934    0.5085   -5.1661 H   0  0  0  0  0  0  0  0  0  0  0  0
    3.0100    1.8940   -5.5298 H   0  0  0  0  0  0  0  0  0  0  0  0
    2.6075    0.6846   -6.7601 H   0  0  0  0  0  0  0  0  0  0  0  0
    2.5100    3.2399   -1.5244 C   0  0  0  0  0  0  0  0  0  0  0  0
    3.2658    3.7764   -2.0933 H   0  0  0  0  0  0  0  0  0  0  0  0
    1.9418    3.8150   -0.3980 C   0  0  0  0  0  0  0  0  0  0  0  0
    2.2629    5.1860    0.0078 C   0  0  0  0  0  0  0  0  0  0  0  0
    2.8466    5.3098    0.9095 H   0  0  0  0  0  0  0  0  0  0  0  0
    1.7828    6.2230   -0.7042 C   0  0  0  0  0  0  0  0  0  0  0  0
    1.1890    6.0189   -1.5965 H   0  0  0  0  0  0  0  0  0  0  0  0
    1.9271    7.6733   -0.3766 C   0  0  0  0  0  0  0  0  0  0  0  0
    2.5302    8.1636   -1.1407 H   0  0  0  0  0  0  0  0  0  0  0  0
    0.9325    8.1438   -0.3715 H   0  0  0  0  0  0  0  0  0  0  0  0
    2.5323    7.8630    0.8921 O   0  0  0  0  0  0  0  0  0  0  0  0
    1.9869    8.5326    1.3398 H   0  0  0  0  0  0  0  0  0  0  0  0
    0.9927    3.0896    0.3328 C   0  0  0  0  0  0  0  0  0  0  0  0
    0.5740    3.5645    1.2132 H   0  0  0  0  0  0  0  0  0  0  0  0
    0.5369    1.8352   -0.1081 C   0  0  0  0  0  0  0  0  0  0  0  0
   -0.4325    1.1073    0.5279 O   0  0  0  0  0  0  0  0  0  0  0  0
   -0.8119    1.5503    1.8277 C   0  0  0  0  0  0  0  0  0  0  0  0
   -1.4051    2.4712    1.7548 H   0  0  0  0  0  0  0  0  0  0  0  0
    0.0504    1.6967    2.4878 H   0  0  0  0  0  0  0  0  0  0  0  0
   -1.4495    0.7856    2.2924 H   0  0  0  0  0  0  0  0  0  0  0  0
    1.6625   -1.6247   -0.8829 C   0  0  0  0  0  0  0  0  0  0  0  0
    1.6206   -1.1184    0.0713 H   0  0  0  0  0  0  0  0  0  0  0  0
    2.2476   -2.9066   -1.0023 C   0  0  0  0  0  0  0  0  0  0  0  0
    2.7405   -3.7353    0.2161 C   0  0  1  0  0  0  0  0  0  0  0  0
    3.8085   -3.8839    0.0947 H   0  0  0  0  0  0  0  0  0  0  0  0
    2.4608   -3.1021    1.4846 O   0  0  0  0  0  0  0  0  0  0  0  0
    3.2361   -2.0897    1.9813 C   0  0  0  0  0  0  0  0  0  0  0  0
    2.5717   -1.0129    2.5820 C   0  0  0  0  0  0  0  0  0  0  0  0
    1.2098   -0.8434    2.7191 O   0  0  0  0  0  0  0  0  0  0  0  0
    0.3454   -1.9644    2.5422 C   0  0  0  0  0  0  0  0  0  0  0  0
   -0.6395   -1.6766    2.9164 H   0  0  0  0  0  0  0  0  0  0  0  0
    0.6669   -2.8312    3.1225 H   0  0  0  0  0  0  0  0  0  0  0  0
    0.2187   -2.2487    1.5017 H   0  0  0  0  0  0  0  0  0  0  0  0
    3.3081    0.0869    3.0549 C   0  0  0  0  0  0  0  0  0  0  0  0
    2.7294    0.9215    3.4440 H   0  0  0  0  0  0  0  0  0  0  0  0
    4.7089    0.1029    3.0550 C   0  0  0  0  0  0  0  0  0  0  0  0
    5.5119    1.3152    3.5436 C   0  0  2  0  0  0  0  0  0  0  0  0
    5.5015    1.9969    2.6902 H   0  0  0  0  0  0  0  0  0  0  0  0
    6.8922    0.9770    3.7308 O   0  0  0  0  0  0  0  0  0  0  0  0
    7.4062    1.8011    3.7732 H   0  0  0  0  0  0  0  0  0  0  0  0
    4.9461    2.1001    4.7888 C   0  0  1  0  0  0  0  0  0  0  0  0
    3.8543    2.1581    4.7563 H   0  0  0  0  0  0  0  0  0  0  0  0
    5.3429    1.6314    6.1110 O   0  0  0  0  0  0  0  0  0  0  0  0
    5.1752    0.3035    6.3490 C   0  0  0  0  0  0  0  0  0  0  0  0
    3.9271   -0.3205    6.3398 C   0  0  0  0  0  0  0  0  0  0  0  0
    2.7148    0.2920    6.1647 O   0  0  0  0  0  0  0  0  0  0  0  0
    2.4348    1.2962    7.1375 C   0  0  0  0  0  0  0  0  0  0  0  0
    2.7130    0.9796    8.1569 H   0  0  0  0  0  0  0  0  0  0  0  0
    2.9238    2.2373    6.8714 H   0  0  0  0  0  0  0  0  0  0  0  0
    1.3590    1.4776    7.1355 H   0  0  0  0  0  0  0  0  0  0  0  0
    3.8712   -1.7181    6.3989 C   0  0  0  0  0  0  0  0  0  0  0  0
    2.8975   -2.1789    6.3552 H   0  0  0  0  0  0  0  0  0  0  0  0
    5.0161   -2.5123    6.4738 C   0  0  0  0  0  0  0  0  0  0  0  0
    4.7939   -3.9697    6.3260 C   0  0  0  0  0  0  0  0  0  0  0  0
    3.7861   -4.3036    6.5751 H   0  0  0  0  0  0  0  0  0  0  0  0
    5.6453   -4.8543    5.7855 C   0  0  0  0  0  0  0  0  0  0  0  0
    6.6475   -4.5532    5.4935 H   0  0  0  0  0  0  0  0  0  0  0  0
    5.1952   -6.2224    5.3563 C   0  0  0  0  0  0  0  0  0  0  0  0
    4.1086   -6.3354    5.3706 H   0  0  0  0  0  0  0  0  0  0  0  0
    5.5474   -6.4257    4.3348 H   0  0  0  0  0  0  0  0  0  0  0  0
    5.7533   -7.2084    6.2104 O   0  0  0  0  0  0  0  0  0  0  0  0
    6.6834   -6.9716    6.3574 H   0  0  0  0  0  0  0  0  0  0  0  0
    6.2521   -1.8871    6.6150 C   0  0  0  0  0  0  0  0  0  0  0  0
    7.1675   -2.4615    6.7476 H   0  0  0  0  0  0  0  0  0  0  0  0
    6.3199   -0.4765    6.5852 C   0  0  0  0  0  0  0  0  0  0  0  0
    7.5744    0.0742    6.7646 O   0  0  0  0  0  0  0  0  0  0  0  0
    7.5913    0.9202    7.9255 C   0  0  0  0  0  0  0  0  0  0  0  0
    7.2896    1.9344    7.6681 H   0  0  0  0  0  0  0  0  0  0  0  0
    6.9634    0.5260    8.7355 H   0  0  0  0  0  0  0  0  0  0  0  0
    8.6170    0.9604    8.3090 H   0  0  0  0  0  0  0  0  0  0  0  0
    5.4450    3.5551    4.7513 C   0  0  0  0  0  0  0  0  0  0  0  0
    5.0750    4.1107    5.6241 H   0  0  0  0  0  0  0  0  0  0  0  0
    6.5372    3.5865    4.8051 H   0  0  0  0  0  0  0  0  0  0  0  0
    5.0258    4.2225    3.5793 O   0  0  0  0  0  0  0  0  0  0  0  0
    5.4000    5.1320    3.5889 H   0  0  0  0  0  0  0  0  0  0  0  0
    5.3664   -1.0056    2.5031 C   0  0  0  0  0  0  0  0  0  0  0  0
    6.4467   -1.0316    2.4255 H   0  0  0  0  0  0  0  0  0  0  0  0
    4.6355   -2.0917    1.9935 C   0  0  0  0  0  0  0  0  0  0  0  0
    5.3656   -3.1535    1.5186 O   0  0  0  0  0  0  0  0  0  0  0  0
    5.5683   -4.0906    2.5832 C   0  0  0  0  0  0  0  0  0  0  0  0
    5.8551   -5.0504    2.1325 H   0  0  0  0  0  0  0  0  0  0  0  0
    6.3996   -3.7478    3.2155 H   0  0  0  0  0  0  0  0  0  0  0  0
    4.6479   -4.2606    3.1539 H   0  0  0  0  0  0  0  0  0  0  0  0
    2.0206   -5.1640    0.3082 C   0  0  1  0  0  0  0  0  0  0  0  0
    1.7475   -5.3214    1.3668 H   0  0  0  0  0  0  0  0  0  0  0  0
    0.7843   -5.0826   -0.4192 O   0  0  0  0  0  0  0  0  0  0  0  0
    0.0332   -6.1984   -0.7242 C   0  0  0  0  0  0  0  0  0  0  0  0
    0.3360   -6.9435   -1.8820 C   0  0  0  0  0  0  0  0  0  0  0  0
    1.5386   -6.6940   -2.4884 O   0  0  0  0  0  0  0  0  0  0  0  0
    1.8731   -7.4484   -3.6407 C   0  0  0  0  0  0  0  0  0  0  0  0
    1.2205   -7.1998   -4.4914 H   0  0  0  0  0  0  0  0  0  0  0  0
    2.9029   -7.1921   -3.9385 H   0  0  0  0  0  0  0  0  0  0  0  0
    1.8721   -8.5235   -3.4272 H   0  0  0  0  0  0  0  0  0  0  0  0
   -0.6052   -7.8602   -2.3807 C   0  0  0  0  0  0  0  0  0  0  0  0
   -0.3767   -8.4353   -3.2759 H   0  0  0  0  0  0  0  0  0  0  0  0
   -1.8741   -7.9847   -1.8054 C   0  0  0  0  0  0  0  0  0  0  0  0
   -2.9543   -8.7855   -2.4135 C   0  0  0  0  0  0  0  0  0  0  0  0
   -3.7491   -9.1122   -1.7483 H   0  0  0  0  0  0  0  0  0  0  0  0
   -3.0380   -9.0808   -3.7256 C   0  0  0  0  0  0  0  0  0  0  0  0
   -2.2474   -8.7508   -4.4015 H   0  0  0  0  0  0  0  0  0  0  0  0
   -4.1477   -9.8139   -4.4089 C   0  0  0  0  0  0  0  0  0  0  0  0
   -4.2887   -9.4081   -5.4199 H   0  0  0  0  0  0  0  0  0  0  0  0
   -3.9060  -10.8776   -4.5145 H   0  0  0  0  0  0  0  0  0  0  0  0
   -5.3767   -9.6867   -3.7103 O   0  0  0  0  0  0  0  0  0  0  0  0
   -5.5310   -8.7282   -3.6244 H   0  0  0  0  0  0  0  0  0  0  0  0
   -2.1424   -7.2678   -0.6333 C   0  0  0  0  0  0  0  0  0  0  0  0
   -3.1254   -7.3510   -0.1693 H   0  0  0  0  0  0  0  0  0  0  0  0
   -1.2183   -6.3498   -0.0831 C   0  0  0  0  0  0  0  0  0  0  0  0
   -1.6445   -5.5052    1.0471 C   0  0  0  0  0  0  0  0  0  0  0  0
   -1.0940   -5.6438    2.3425 C   0  0  0  0  0  0  0  0  0  0  0  0
   -0.3002   -6.3849    2.4930 H   0  0  0  0  0  0  0  0  0  0  0  0
   -1.5129   -4.8556    3.4523 C   0  0  0  0  0  0  0  0  0  0  0  0
   -0.9824   -5.1486    4.8587 C   0  0  1  0  0  0  0  0  0  0  0  0
   -1.5774   -6.0104    5.1791 H   0  0  0  0  0  0  0  0  0  0  0  0
    0.3723   -5.6440    4.7714 O   0  0  0  0  0  0  0  0  0  0  0  0
    0.3971   -6.4863    5.2653 H   0  0  0  0  0  0  0  0  0  0  0  0
   -1.1042   -3.9876    5.9299 C   0  0  1  0  0  0  0  0  0  0  0  0
   -1.6052   -3.1250    5.4992 H   0  0  0  0  0  0  0  0  0  0  0  0
   -1.8009   -4.3323    7.1556 O   0  0  0  0  0  0  0  0  0  0  0  0
   -2.9676   -5.0181    7.0065 C   0  0  0  0  0  0  0  0  0  0  0  0
   -2.9900   -6.3465    7.4540 C   0  0  0  0  0  0  0  0  0  0  0  0
   -1.9088   -6.9562    8.0586 O   0  0  0  0  0  0  0  0  0  0  0  0
   -1.5284   -6.2874    9.2738 C   0  0  0  0  0  0  0  0  0  0  0  0
   -0.8115   -5.4873    9.0733 H   0  0  0  0  0  0  0  0  0  0  0  0
   -2.3972   -5.8849    9.8205 H   0  0  0  0  0  0  0  0  0  0  0  0
   -1.0272   -7.0154    9.9164 H   0  0  0  0  0  0  0  0  0  0  0  0
   -4.0844   -7.1637    7.2018 C   0  0  0  0  0  0  0  0  0  0  0  0
   -4.0504   -8.2135    7.4990 H   0  0  0  0  0  0  0  0  0  0  0  0
   -5.2039   -6.6470    6.5460 C   0  0  0  0  0  0  0  0  0  0  0  0
   -6.3406   -7.5056    6.2598 C   0  0  0  0  0  0  0  0  0  0  0  0
   -7.2079   -7.4164    6.9046 H   0  0  0  0  0  0  0  0  0  0  0  0
   -6.3066   -8.4024    5.2604 C   0  0  0  0  0  0  0  0  0  0  0  0
   -5.4175   -8.4551    4.6350 H   0  0  0  0  0  0  0  0  0  0  0  0
   -7.3807   -9.3777    4.9056 C   0  0  0  0  0  0  0  0  0  0  0  0
   -7.8181   -9.1278    3.9345 H   0  0  0  0  0  0  0  0  0  0  0  0
   -6.9446  -10.3801    4.8513 H   0  0  0  0  0  0  0  0  0  0  0  0
   -8.4083   -9.3915    5.8841 O   0  0  0  0  0  0  0  0  0  0  0  0
   -8.9824  -10.1519    5.6567 H   0  0  0  0  0  0  0  0  0  0  0  0
   -5.2300   -5.2897    6.1781 C   0  0  0  0  0  0  0  0  0  0  0  0
   -6.0981   -4.8684    5.6853 H   0  0  0  0  0  0  0  0  0  0  0  0
   -4.1169   -4.4740    6.4300 C   0  0  0  0  0  0  0  0  0  0  0  0
   -4.2263   -3.1717    6.0076 O   0  0  0  0  0  0  0  0  0  0  0  0
   -3.9649   -2.2182    7.0454 C   0  0  0  0  0  0  0  0  0  0  0  0
   -4.1294   -2.6242    8.0516 H   0  0  0  0  0  0  0  0  0  0  0  0
   -2.9399   -1.8438    6.9509 H   0  0  0  0  0  0  0  0  0  0  0  0
   -4.6480   -1.3739    6.8956 H   0  0  0  0  0  0  0  0  0  0  0  0
    0.2479   -3.4569    6.4452 C   0  0  0  0  0  0  0  0  0  0  0  0
    0.1038   -2.7507    7.2700 H   0  0  0  0  0  0  0  0  0  0  0  0
    0.8444   -4.2687    6.8748 H   0  0  0  0  0  0  0  0  0  0  0  0
    1.0047   -2.8376    5.4239 O   0  0  0  0  0  0  0  0  0  0  0  0
    0.7934   -1.8863    5.3689 H   0  0  0  0  0  0  0  0  0  0  0  0
   -2.5353   -3.9269    3.2115 C   0  0  0  0  0  0  0  0  0  0  0  0
   -2.9004   -3.2728    3.9864 H   0  0  0  0  0  0  0  0  0  0  0  0
   -3.1085   -3.7705    1.9409 C   0  0  0  0  0  0  0  0  0  0  0  0
   -4.0952   -2.8577    1.6749 O   0  0  0  0  0  0  0  0  0  0  0  0
   -5.2591   -3.0798    2.4632 C   0  0  0  0  0  0  0  0  0  0  0  0
   -5.4643   -4.1518    2.6016 H   0  0  0  0  0  0  0  0  0  0  0  0
   -5.1711   -2.5712    3.4327 H   0  0  0  0  0  0  0  0  0  0  0  0
   -6.1036   -2.6424    1.9205 H   0  0  0  0  0  0  0  0  0  0  0  0
   -2.6685   -4.5509    0.8808 C   0  0  0  0  0  0  0  0  0  0  0  0
   -3.2778   -4.3953   -0.3407 O   0  0  0  0  0  0  0  0  0  0  0  0
   -3.8427   -3.6073   -0.2439 H   0  0  0  0  0  0  0  0  0  0  0  0
    3.0025   -6.2785   -0.0786 C   0  0  0  0  0  0  0  0  0  0  0  0
    2.5098   -7.2569   -0.1158 H   0  0  0  0  0  0  0  0  0  0  0  0
    3.4589   -6.0678   -1.0440 H   0  0  0  0  0  0  0  0  0  0  0  0
    4.0714   -6.3906    0.8789 O   0  0  0  0  0  0  0  0  0  0  0  0
    4.7479   -6.9684    0.4777 H   0  0  0  0  0  0  0  0  0  0  0  0
    2.2794   -3.4756   -2.2866 C   0  0  0  0  0  0  0  0  0  0  0  0
    2.7546   -4.4384   -2.4461 H   0  0  0  0  0  0  0  0  0  0  0  0
    1.6178   -2.8762   -3.3557 C   0  0  0  0  0  0  0  0  0  0  0  0
    1.5157   -3.5472   -4.5546 O   0  0  0  0  0  0  0  0  0  0  0  0
    2.6108   -3.1927   -5.4104 C   0  0  0  0  0  0  0  0  0  0  0  0
    2.4378   -2.2186   -5.8809 H   0  0  0  0  0  0  0  0  0  0  0  0
    3.5758   -3.2046   -4.8879 H   0  0  0  0  0  0  0  0  0  0  0  0
    2.6686   -3.9355   -6.2068 H   0  0  0  0  0  0  0  0  0  0  0  0
  1  2  1  0
  2  3  1  0
  3  4  2  0
  3201  1  0
  4  5  1  0
  4 52  1  0
  5  6  1  0
  6  7  1  0
  6 46  2  0
  7  8  1  0
  7 32  2  0
  8  9  1  0
  9 10  2  0
  9 26  1  0
 10 11  1  0
 10 12  1  0
 12 13  1  0
 12 14  2  0
 14 15  1  0
 14 24  1  0
 15 16  1  0
 15 17  2  0
 17 18  1  0
 17 19  1  0
 19 20  1  0
 19 21  1  0
 19 22  1  0
 22 23  1  0
 24 25  1  0
 24 26  2  0
 26 27  1  0
 27 28  1  0
 28 29  1  0
 28 30  1  0
 28 31  1  0
 32 33  1  0
 32 34  1  0
 34 35  1  0
 34 44  2  0
 35 36  1  0
 35 37  2  0
 37 38  1  0
 37 39  1  0
 39 40  1  0
 39 41  1  0
 39 42  1  0
 42 43  1  0
 44 45  1  0
 44 46  1  0
 46 47  1  0
 47 48  1  0
 48 49  1  0
 48 50  1  0
 48 51  1  0
 52 53  1  0
 52 54  2  0
 54 55  1  0
 54199  1  0
 55 56  1  6
 55 57  1  0
 55115  1  0
 57 58  1  0
 58 59  2  0
 58109  1  0
 59 60  1  0
 59 65  1  0
 60 61  1  0
 61 62  1  0
 61 63  1  0
 61 64  1  0
 65 66  1  0
 65 67  2  0
 67 68  1  0
 67107  1  0
 68 69  1  1
 68 70  1  0
 68 72  1  0
 70 71  1  0
 72 73  1  1
 72 74  1  0
 72102  1  0
 74 75  1  0
 75 76  2  0
 75 96  1  0
 76 77  1  0
 76 82  1  0
 77 78  1  0
 78 79  1  0
 78 80  1  0
 78 81  1  0
 82 83  1  0
 82 84  2  0
 84 85  1  0
 84 94  1  0
 85 86  1  0
 85 87  2  0
 87 88  1  0
 87 89  1  0
 89 90  1  0
 89 91  1  0
 89 92  1  0
 92 93  1  0
 94 95  1  0
 94 96  2  0
 96 97  1  0
 97 98  1  0
 98 99  1  0
 98100  1  0
 98101  1  0
102103  1  0
102104  1  0
102105  1  0
105106  1  0
107108  1  0
107109  2  0
109110  1  0
110111  1  0
111112  1  0
111113  1  0
111114  1  0
115116  1  1
115117  1  0
115194  1  0
117118  1  0
118119  2  0
118139  1  0
119120  1  0
119125  1  0
120121  1  0
121122  1  0
121123  1  0
121124  1  0
125126  1  0
125127  2  0
127128  1  0
127137  1  0
128129  1  0
128130  2  0
130131  1  0
130132  1  0
132133  1  0
132134  1  0
132135  1  0
135136  1  0
137138  1  0
137139  2  0
139140  1  0
140141  2  0
140191  1  0
141142  1  0
141143  1  0
143144  1  0
143183  2  0
144145  1  1
144146  1  0
144148  1  0
146147  1  0
148149  1  6
148150  1  0
148178  1  0
150151  1  0
151152  2  0
151172  1  0
152153  1  0
152158  1  0
153154  1  0
154155  1  0
154156  1  0
154157  1  0
158159  1  0
158160  2  0
160161  1  0
160170  1  0
161162  1  0
161163  2  0
163164  1  0
163165  1  0
165166  1  0
165167  1  0
165168  1  0
168169  1  0
170171  1  0
170172  2  0
172173  1  0
173174  1  0
174175  1  0
174176  1  0
174177  1  0
178179  1  0
178180  1  0
178181  1  0
181182  1  0
183184  1  0
183185  1  0
185186  1  0
185191  2  0
186187  1  0
187188  1  0
187189  1  0
187190  1  0
191192  1  0
192193  1  0
194195  1  0
194196  1  0
194197  1  0
197198  1  0
199200  1  0
199201  2  0
201202  1  0
202203  1  0
203204  1  0
203205  1  0
203206  1  0
M  END
