
 OpenBabel08272019003D

 50 53  0  0  0  0  0  0  0  0999 V2000
   -2.2144    4.2982    1.5109 C   0  0  0  0  0  0  0  0  0  0  0  0
   -2.5866    3.4625    2.5476 C   0  0  0  0  0  0  0  0  0  0  0  0
   -2.1715    2.1370    2.5288 C   0  0  0  0  0  0  0  0  0  0  0  0
   -1.3949    1.6200    1.4752 C   0  0  0  0  0  0  0  0  0  0  0  0
   -0.9959    2.4327    0.3921 C   0  0  0  0  0  0  0  0  0  0  0  0
   -1.4262    3.8014    0.4590 C   0  0  0  0  0  0  0  0  0  0  0  0
   -0.2210    1.7673   -0.6174 C   0  0  0  0  0  0  0  0  0  0  0  0
    0.1264    0.3746   -0.5724 C   0  0  0  0  0  0  0  0  0  0  0  0
   -0.2528   -0.3891    0.5384 C   0  0  0  0  0  0  0  0  0  0  0  0
   -1.0197    0.2673    1.5322 C   0  0  0  0  0  0  0  0  0  0  0  0
   -2.5462    5.3349    1.5128 H   0  0  0  0  0  0  0  0  0  0  0  0
   -3.1986    3.8348    3.3652 H   0  0  0  0  0  0  0  0  0  0  0  0
   -2.4721    1.4950    3.3575 H   0  0  0  0  0  0  0  0  0  0  0  0
   -1.3392   -0.2976    2.4103 H   0  0  0  0  0  0  0  0  0  0  0  0
   -1.0930    4.8231   -0.5510 C   0  0  0  0  0  0  0  0  0  0  0  0
    0.2914    2.5206   -1.7835 C   0  0  0  0  0  0  0  0  0  0  0  0
   -1.8456    5.0062   -1.4987 O   0  0  0  0  0  0  0  0  0  0  0  0
    0.0862    5.7096   -0.2528 C   0  0  0  0  0  0  0  0  0  0  0  0
   -0.3516    2.5332   -2.8259 O   0  0  0  0  0  0  0  0  0  0  0  0
    1.6832    3.0855   -1.6724 C   0  0  0  0  0  0  0  0  0  0  0  0
    0.8023    5.2018    0.3992 H   0  0  0  0  0  0  0  0  0  0  0  0
   -0.2605    6.6235    0.2362 H   0  0  0  0  0  0  0  0  0  0  0  0
    1.9856    3.1857   -0.6266 H   0  0  0  0  0  0  0  0  0  0  0  0
    1.7127    4.0723   -2.1400 H   0  0  0  0  0  0  0  0  0  0  0  0
    0.5928    5.9638   -1.1873 H   0  0  0  0  0  0  0  0  0  0  0  0
    2.3858    2.4215   -2.1829 H   0  0  0  0  0  0  0  0  0  0  0  0
    0.8217   -0.2921   -1.6086 C   0  0  0  0  0  0  0  0  0  0  0  0
    1.2088   -1.6398   -1.5536 C   0  0  0  0  0  0  0  0  0  0  0  0
    0.9204   -2.4266   -0.4175 C   0  0  0  0  0  0  0  0  0  0  0  0
    0.1349   -1.7736    0.5982 C   0  0  0  0  0  0  0  0  0  0  0  0
    1.4433   -3.7676   -0.4476 C   0  0  0  0  0  0  0  0  0  0  0  0
    2.1340   -4.2825   -1.5589 C   0  0  0  0  0  0  0  0  0  0  0  0
    2.3430   -3.4886   -2.6720 C   0  0  0  0  0  0  0  0  0  0  0  0
    1.8933   -2.1751   -2.6595 C   0  0  0  0  0  0  0  0  0  0  0  0
    1.0687    0.2606   -2.5176 H   0  0  0  0  0  0  0  0  0  0  0  0
    2.8822   -3.8749   -3.5334 H   0  0  0  0  0  0  0  0  0  0  0  0
    2.0934   -1.5579   -3.5359 H   0  0  0  0  0  0  0  0  0  0  0  0
    2.5453   -5.2898   -1.5471 H   0  0  0  0  0  0  0  0  0  0  0  0
   -0.4259   -2.5580    1.7301 C   0  0  0  0  0  0  0  0  0  0  0  0
    1.4196   -4.6689    0.7261 C   0  0  0  0  0  0  0  0  0  0  0  0
   -0.0957   -2.3031    2.8839 O   0  0  0  0  0  0  0  0  0  0  0  0
   -1.5344   -3.5269    1.4091 C   0  0  0  0  0  0  0  0  0  0  0  0
    1.9514   -4.3093    1.7691 O   0  0  0  0  0  0  0  0  0  0  0  0
    0.8173   -6.0384    0.5529 C   0  0  0  0  0  0  0  0  0  0  0  0
   -1.5667   -3.7669    0.3433 H   0  0  0  0  0  0  0  0  0  0  0  0
   -2.4903   -3.0795    1.6949 H   0  0  0  0  0  0  0  0  0  0  0  0
    0.1153   -6.0546   -0.2854 H   0  0  0  0  0  0  0  0  0  0  0  0
    0.2645   -6.3032    1.4585 H   0  0  0  0  0  0  0  0  0  0  0  0
   -1.3804   -4.4520    1.9700 H   0  0  0  0  0  0  0  0  0  0  0  0
    1.6121   -6.7685    0.3808 H   0  0  0  0  0  0  0  0  0  0  0  0
  1  2  2  0  0  0  0
  2  3  1  0  0  0  0
  2 12  1  0  0  0  0
  3 13  1  0  0  0  0
  4 10  1  0  0  0  0
  4  3  2  0  0  0  0
  5  4  1  0  0  0  0
  6  5  2  0  0  0  0
  6  1  1  0  0  0  0
  7  8  2  0  0  0  0
  7  5  1  0  0  0  0
  8  9  1  0  0  0  0
  8 27  1  0  0  0  0
  9 10  2  0  0  0  0
  9 30  1  0  0  0  0
 10 14  1  0  0  0  0
 11  1  1  0  0  0  0
 15  6  1  0  0  0  0
 16  7  1  0  0  0  0
 17 15  2  0  0  0  0
 18 15  1  0  0  0  0
 18 22  1  0  0  0  0
 18 21  1  0  0  0  0
 19 16  2  0  0  0  0
 20 16  1  0  0  0  0
 20 23  1  0  0  0  0
 24 20  1  0  0  0  0
 25 18  1  0  0  0  0
 26 20  1  0  0  0  0
 27 35  1  0  0  0  0
 28 34  1  0  0  0  0
 28 27  2  0  0  0  0
 29 28  1  0  0  0  0
 30 29  2  0  0  0  0
 31 32  2  0  0  0  0
 31 29  1  0  0  0  0
 32 33  1  0  0  0  0
 33 36  1  0  0  0  0
 33 34  2  0  0  0  0
 34 37  1  0  0  0  0
 38 32  1  0  0  0  0
 39 30  1  0  0  0  0
 40 31  1  0  0  0  0
 41 39  2  0  0  0  0
 42 39  1  0  0  0  0
 42 46  1  0  0  0  0
 42 45  1  0  0  0  0
 43 40  2  0  0  0  0
 44 40  1  0  0  0  0
 44 47  1  0  0  0  0
 48 44  1  0  0  0  0
 49 42  1  0  0  0  0
 50 44  1  0  0  0  0
M  END
