
 OpenBabel08242002113D

 28 29  0  0  0  0  0  0  0  0999 V2000
   -0.6136    3.2189    0.9875 C   0  0  0  0  0  0  0  0  0  0  0  0
   -1.1896    2.7050    2.1360 C   0  0  0  0  0  0  0  0  0  0  0  0
   -1.3814    1.3332    2.2447 C   0  0  0  0  0  0  0  0  0  0  0  0
   -0.9958    0.4534    1.2193 C   0  0  0  0  0  0  0  0  0  0  0  0
   -0.3725    0.9365    0.0324 C   0  0  0  0  0  0  0  0  0  0  0  0
   -0.2054    2.3584   -0.0459 C   0  0  0  0  0  0  0  0  0  0  0  0
   -0.0001   -0.0659   -0.9216 C   0  0  0  0  0  0  0  0  0  0  0  0
   -0.2734   -1.4312   -0.7268 C   0  0  0  0  0  0  0  0  0  0  0  0
   -0.9034   -1.8538    0.4316 C   0  0  0  0  0  0  0  0  0  0  0  0
   -1.2494   -0.9173    1.3985 C   0  0  0  0  0  0  0  0  0  0  0  0
   -0.4908    4.2961    0.8849 H   0  0  0  0  0  0  0  0  0  0  0  0
   -1.5044    3.3689    2.9367 H   0  0  0  0  0  0  0  0  0  0  0  0
   -1.8516    0.9513    3.1502 H   0  0  0  0  0  0  0  0  0  0  0  0
   -1.1270   -2.9067    0.5845 H   0  0  0  0  0  0  0  0  0  0  0  0
   -1.7401   -1.2720    2.3044 H   0  0  0  0  0  0  0  0  0  0  0  0
   -0.0068   -2.1648   -1.4854 H   0  0  0  0  0  0  0  0  0  0  0  0
    0.3637    3.0809   -1.2025 C   0  0  0  0  0  0  0  0  0  0  0  0
    0.7285    0.2333   -2.1696 C   0  0  0  0  0  0  0  0  0  0  0  0
   -0.3814    3.7446   -1.9168 O   0  0  0  0  0  0  0  0  0  0  0  0
    1.8617    3.1467   -1.3109 C   0  0  0  0  0  0  0  0  0  0  0  0
    0.1581    0.7929   -3.0963 O   0  0  0  0  0  0  0  0  0  0  0  0
    2.1545   -0.2469   -2.2580 C   0  0  0  0  0  0  0  0  0  0  0  0
    2.3396    2.3626   -0.7187 H   0  0  0  0  0  0  0  0  0  0  0  0
    2.1992    4.1190   -0.9416 H   0  0  0  0  0  0  0  0  0  0  0  0
    2.5408   -0.5188   -1.2711 H   0  0  0  0  0  0  0  0  0  0  0  0
    2.7811    0.5565   -2.6539 H   0  0  0  0  0  0  0  0  0  0  0  0
    2.1561    3.0279   -2.3569 H   0  0  0  0  0  0  0  0  0  0  0  0
    2.2060   -1.1173   -2.9165 H   0  0  0  0  0  0  0  0  0  0  0  0
  1 11  1  0  0  0  0
  1  2  2  0  0  0  0
  2 12  1  0  0  0  0
  3  2  1  0  0  0  0
  3 13  1  0  0  0  0
  4  3  2  0  0  0  0
  5  6  2  0  0  0  0
  5  4  1  0  0  0  0
  6  1  1  0  0  0  0
  6 17  1  0  0  0  0
  7  5  1  0  0  0  0
  7 18  1  0  0  0  0
  8  7  2  0  0  0  0
  8  9  1  0  0  0  0
  9 10  2  0  0  0  0
 10  4  1  0  0  0  0
 10 15  1  0  0  0  0
 14  9  1  0  0  0  0
 16  8  1  0  0  0  0
 17 19  2  0  0  0  0
 17 20  1  0  0  0  0
 18 21  2  0  0  0  0
 20 23  1  0  0  0  0
 20 24  1  0  0  0  0
 20 27  1  0  0  0  0
 22 25  1  0  0  0  0
 22 26  1  0  0  0  0
 22 18  1  0  0  0  0
 22 28  1  0  0  0  0
M  END
