
 OpenBabel08272019033D

 94101  0  0  0  0  0  0  0  0999 V2000
   -4.1323    8.2461    3.9585 C   0  0  0  0  0  0  0  0  0  0  0  0
   -4.3858    7.4142    5.0331 C   0  0  0  0  0  0  0  0  0  0  0  0
   -3.9894    6.0858    4.9660 C   0  0  0  0  0  0  0  0  0  0  0  0
   -3.3287    5.5675    3.8376 C   0  0  0  0  0  0  0  0  0  0  0  0
   -3.0183    6.3822    2.7257 C   0  0  0  0  0  0  0  0  0  0  0  0
   -3.4629    7.7497    2.8250 C   0  0  0  0  0  0  0  0  0  0  0  0
   -2.2962    5.7203    1.6669 C   0  0  0  0  0  0  0  0  0  0  0  0
   -1.9626    4.3181    1.6804 C   0  0  0  0  0  0  0  0  0  0  0  0
   -2.3242    3.5464    2.7883 C   0  0  0  0  0  0  0  0  0  0  0  0
   -2.9851    4.2070    3.8504 C   0  0  0  0  0  0  0  0  0  0  0  0
   -4.4869    9.2743    3.9947 H   0  0  0  0  0  0  0  0  0  0  0  0
   -4.9095    7.7871    5.9099 H   0  0  0  0  0  0  0  0  0  0  0  0
   -4.2140    5.4431    5.8179 H   0  0  0  0  0  0  0  0  0  0  0  0
   -3.2339    3.6378    4.7492 H   0  0  0  0  0  0  0  0  0  0  0  0
   -3.3442    8.7292    1.7225 C   0  0  0  0  0  0  0  0  0  0  0  0
   -1.7701    6.4958    0.5142 C   0  0  0  0  0  0  0  0  0  0  0  0
   -3.8907    8.5018    0.6510 O   0  0  0  0  0  0  0  0  0  0  0  0
   -2.6204   10.0203    2.0069 C   0  0  0  0  0  0  0  0  0  0  0  0
   -2.1922    6.2762   -0.6166 O   0  0  0  0  0  0  0  0  0  0  0  0
   -0.5884    7.3940    0.7714 C   0  0  0  0  0  0  0  0  0  0  0  0
   -1.9395    9.9094    2.8557 H   0  0  0  0  0  0  0  0  0  0  0  0
   -3.3473   10.8078    2.2212 H   0  0  0  0  0  0  0  0  0  0  0  0
   -0.4710    7.6116    1.8360 H   0  0  0  0  0  0  0  0  0  0  0  0
   -0.7266    8.3362    0.2353 H   0  0  0  0  0  0  0  0  0  0  0  0
   -2.0241   10.2979    1.1335 H   0  0  0  0  0  0  0  0  0  0  0  0
    0.3185    6.8987    0.4139 H   0  0  0  0  0  0  0  0  0  0  0  0
   -1.2829    3.6424    0.6360 C   0  0  0  0  0  0  0  0  0  0  0  0
   -0.9328    2.2781    0.6653 C   0  0  0  0  0  0  0  0  0  0  0  0
   -1.2517    1.4772    1.7684 C   0  0  0  0  0  0  0  0  0  0  0  0
   -2.0029    2.1465    2.7997 C   0  0  0  0  0  0  0  0  0  0  0  0
   -0.7798    0.1154    1.6916 C   0  0  0  0  0  0  0  0  0  0  0  0
   -0.0697   -0.4288    0.5648 C   0  0  0  0  0  0  0  0  0  0  0  0
    0.1950    0.3979   -0.5296 C   0  0  0  0  0  0  0  0  0  0  0  0
   -0.2559    1.7383   -0.4438 C   0  0  0  0  0  0  0  0  0  0  0  0
   -1.0108    4.2051   -0.2601 H   0  0  0  0  0  0  0  0  0  0  0  0
   -0.0845    2.4059   -1.2916 H   0  0  0  0  0  0  0  0  0  0  0  0
   -2.6231    1.3649    3.8928 C   0  0  0  0  0  0  0  0  0  0  0  0
   -0.8946   -0.7751    2.8685 C   0  0  0  0  0  0  0  0  0  0  0  0
   -2.0554    1.2564    4.9716 O   0  0  0  0  0  0  0  0  0  0  0  0
   -4.0289    0.8761    3.6504 C   0  0  0  0  0  0  0  0  0  0  0  0
    0.0143   -0.7773    3.6908 O   0  0  0  0  0  0  0  0  0  0  0  0
   -2.0503   -1.7378    2.9158 C   0  0  0  0  0  0  0  0  0  0  0  0
   -4.2043    0.7047    2.5847 H   0  0  0  0  0  0  0  0  0  0  0  0
   -4.7431    1.6161    4.0203 H   0  0  0  0  0  0  0  0  0  0  0  0
   -2.8180   -1.4679    2.1861 H   0  0  0  0  0  0  0  0  0  0  0  0
   -2.4916   -1.7213    3.9152 H   0  0  0  0  0  0  0  0  0  0  0  0
   -4.1827   -0.0680    4.1787 H   0  0  0  0  0  0  0  0  0  0  0  0
   -1.6947   -2.7476    2.6962 H   0  0  0  0  0  0  0  0  0  0  0  0
    0.3903   -1.7658    0.4800 C   0  0  0  0  0  0  0  0  0  0  0  0
    1.0450   -2.3107   -0.6414 C   0  0  0  0  0  0  0  0  0  0  0  0
    1.3444   -1.5159   -1.7554 C   0  0  0  0  0  0  0  0  0  0  0  0
    0.9097   -0.1432   -1.6551 C   0  0  0  0  0  0  0  0  0  0  0  0
    2.0361   -2.2043   -2.8173 C   0  0  0  0  0  0  0  0  0  0  0  0
    2.3453   -3.6079   -2.8049 C   0  0  0  0  0  0  0  0  0  0  0  0
    2.0393   -4.3634   -1.6689 C   0  0  0  0  0  0  0  0  0  0  0  0
    1.3931   -3.6757   -0.6113 C   0  0  0  0  0  0  0  0  0  0  0  0
    0.2320   -2.4309    1.3314 H   0  0  0  0  0  0  0  0  0  0  0  0
    1.1464   -4.2294    0.2974 H   0  0  0  0  0  0  0  0  0  0  0  0
    1.1580    0.8058   -2.7625 C   0  0  0  0  0  0  0  0  0  0  0  0
    2.5355   -1.4605   -3.9953 C   0  0  0  0  0  0  0  0  0  0  0  0
    0.2849    0.9827   -3.6033 O   0  0  0  0  0  0  0  0  0  0  0  0
    2.4103    1.6386   -2.6875 C   0  0  0  0  0  0  0  0  0  0  0  0
    1.8285   -1.3480   -4.9882 O   0  0  0  0  0  0  0  0  0  0  0  0
    3.9797   -1.0283   -3.9605 C   0  0  0  0  0  0  0  0  0  0  0  0
    3.1636    1.1595   -2.0566 H   0  0  0  0  0  0  0  0  0  0  0  0
    2.1727    2.6211   -2.2721 H   0  0  0  0  0  0  0  0  0  0  0  0
    4.3349   -0.9327   -2.9308 H   0  0  0  0  0  0  0  0  0  0  0  0
    4.0817   -0.0585   -4.4527 H   0  0  0  0  0  0  0  0  0  0  0  0
    2.8221    1.7619   -3.6920 H   0  0  0  0  0  0  0  0  0  0  0  0
    4.5955   -1.7634   -4.4848 H   0  0  0  0  0  0  0  0  0  0  0  0
    2.9252   -4.2916   -3.9001 C   0  0  0  0  0  0  0  0  0  0  0  0
    3.2807   -5.6485   -3.8814 C   0  0  0  0  0  0  0  0  0  0  0  0
    3.0700   -6.4316   -2.7265 C   0  0  0  0  0  0  0  0  0  0  0  0
    2.3807   -5.7638   -1.6502 C   0  0  0  0  0  0  0  0  0  0  0  0
    3.5651   -7.7830   -2.7993 C   0  0  0  0  0  0  0  0  0  0  0  0
    4.1462   -8.3094   -3.9670 C   0  0  0  0  0  0  0  0  0  0  0  0
    4.2720   -7.5189   -5.0949 C   0  0  0  0  0  0  0  0  0  0  0  0
    3.8542   -6.1961   -5.0429 C   0  0  0  0  0  0  0  0  0  0  0  0
    3.1025   -3.7443   -4.8287 H   0  0  0  0  0  0  0  0  0  0  0  0
    4.7272   -7.9146   -5.9996 H   0  0  0  0  0  0  0  0  0  0  0  0
    3.9927   -5.5813   -5.9328 H   0  0  0  0  0  0  0  0  0  0  0  0
    4.5418   -9.3226   -3.9916 H   0  0  0  0  0  0  0  0  0  0  0  0
    1.8516   -6.5526   -0.5035 C   0  0  0  0  0  0  0  0  0  0  0  0
    3.6443   -8.6741   -1.6181 C   0  0  0  0  0  0  0  0  0  0  0  0
    2.2111   -6.3037    0.6427 O   0  0  0  0  0  0  0  0  0  0  0  0
    0.7419   -7.5311   -0.7958 C   0  0  0  0  0  0  0  0  0  0  0  0
    4.2076   -8.2771   -0.6055 O   0  0  0  0  0  0  0  0  0  0  0  0
    3.1029  -10.0744   -1.7440 C   0  0  0  0  0  0  0  0  0  0  0  0
    0.6458   -7.7312   -1.8660 H   0  0  0  0  0  0  0  0  0  0  0  0
   -0.2025   -7.1129   -0.4367 H   0  0  0  0  0  0  0  0  0  0  0  0
    2.3660  -10.1406   -2.5493 H   0  0  0  0  0  0  0  0  0  0  0  0
    2.6040  -10.3502   -0.8108 H   0  0  0  0  0  0  0  0  0  0  0  0
    0.9444   -8.4736   -0.2814 H   0  0  0  0  0  0  0  0  0  0  0  0
    3.9249  -10.7676   -1.9399 H   0  0  0  0  0  0  0  0  0  0  0  0
  1  2  2  0  0  0  0
  2  3  1  0  0  0  0
  2 12  1  0  0  0  0
  3 13  1  0  0  0  0
  4 10  1  0  0  0  0
  4  3  2  0  0  0  0
  5  4  1  0  0  0  0
  6  5  2  0  0  0  0
  6  1  1  0  0  0  0
  7  8  2  0  0  0  0
  7  5  1  0  0  0  0
  8  9  1  0  0  0  0
  8 27  1  0  0  0  0
  9 10  2  0  0  0  0
  9 30  1  0  0  0  0
 10 14  1  0  0  0  0
 11  1  1  0  0  0  0
 15  6  1  0  0  0  0
 16  7  1  0  0  0  0
 17 15  2  0  0  0  0
 18 15  1  0  0  0  0
 18 22  1  0  0  0  0
 18 21  1  0  0  0  0
 19 16  2  0  0  0  0
 20 16  1  0  0  0  0
 20 23  1  0  0  0  0
 24 20  1  0  0  0  0
 25 18  1  0  0  0  0
 26 20  1  0  0  0  0
 27 35  1  0  0  0  0
 28 34  1  0  0  0  0
 28 27  2  0  0  0  0
 29 28  1  0  0  0  0
 30 29  2  0  0  0  0
 31 32  2  0  0  0  0
 31 29  1  0  0  0  0
 32 33  1  0  0  0  0
 32 49  1  0  0  0  0
 33 34  2  0  0  0  0
 33 52  1  0  0  0  0
 34 36  1  0  0  0  0
 37 30  1  0  0  0  0
 38 31  1  0  0  0  0
 39 37  2  0  0  0  0
 40 37  1  0  0  0  0
 40 44  1  0  0  0  0
 40 43  1  0  0  0  0
 41 38  2  0  0  0  0
 42 38  1  0  0  0  0
 42 45  1  0  0  0  0
 46 42  1  0  0  0  0
 47 40  1  0  0  0  0
 48 42  1  0  0  0  0
 49 57  1  0  0  0  0
 50 56  1  0  0  0  0
 50 49  2  0  0  0  0
 51 52  2  0  0  0  0
 51 50  1  0  0  0  0
 53 54  2  0  0  0  0
 53 51  1  0  0  0  0
 54 55  1  0  0  0  0
 55 74  1  0  0  0  0
 55 56  2  0  0  0  0
 56 58  1  0  0  0  0
 59 62  1  0  0  0  0
 59 52  1  0  0  0  0
 60 64  1  0  0  0  0
 60 53  1  0  0  0  0
 61 59  2  0  0  0  0
 62 66  1  0  0  0  0
 62 65  1  0  0  0  0
 63 60  2  0  0  0  0
 64 67  1  0  0  0  0
 68 64  1  0  0  0  0
 69 62  1  0  0  0  0
 70 64  1  0  0  0  0
 71 72  2  0  0  0  0
 71 54  1  0  0  0  0
 72 73  1  0  0  0  0
 73 74  2  0  0  0  0
 74 83  1  0  0  0  0
 75 73  1  0  0  0  0
 75 84  1  0  0  0  0
 76 82  1  0  0  0  0
 76 75  2  0  0  0  0
 77 78  2  0  0  0  0
 77 76  1  0  0  0  0
 78 72  1  0  0  0  0
 79 71  1  0  0  0  0
 80 77  1  0  0  0  0
 81 78  1  0  0  0  0
 83 85  2  0  0  0  0
 84 87  2  0  0  0  0
 86 90  1  0  0  0  0
 86 83  1  0  0  0  0
 86 93  1  0  0  0  0
 88 84  1  0  0  0  0
 88 92  1  0  0  0  0
 89 86  1  0  0  0  0
 91 88  1  0  0  0  0
 94 88  1  0  0  0  0
M  END
