
 OpenBabel08192015263D

 20 21  0  0  0  0  0  0  0  0999 V2000
   -0.1111   -0.0950    1.7272 C   0  0  0  0  0  0  0  0  0  0  0  0
   -0.6710   -1.0930    2.5148 C   0  0  0  0  0  0  0  0  0  0  0  0
   -1.1762   -2.2479    1.9162 C   0  0  0  0  0  0  0  0  0  0  0  0
   -1.1298   -2.4232    0.5217 C   0  0  0  0  0  0  0  0  0  0  0  0
   -0.5628   -1.4165   -0.2969 C   0  0  0  0  0  0  0  0  0  0  0  0
   -0.0594   -0.2570    0.3452 C   0  0  0  0  0  0  0  0  0  0  0  0
   -0.5398   -1.6410   -1.6968 C   0  0  0  0  0  0  0  0  0  0  0  0
   -1.0528   -2.8064   -2.2676 C   0  0  0  0  0  0  0  0  0  0  0  0
   -1.6053   -3.7828   -1.4465 C   0  0  0  0  0  0  0  0  0  0  0  0
   -1.6432   -3.5926   -0.0647 C   0  0  0  0  0  0  0  0  0  0  0  0
    0.5088    0.7742   -0.3596 O   0  0  0  0  0  0  0  0  0  0  0  0
    0.0058   -0.6782   -2.5153 O   0  0  0  0  0  0  0  0  0  0  0  0
    0.2852    0.8082    2.1820 H   0  0  0  0  0  0  0  0  0  0  0  0
   -0.7147   -0.9734    3.5939 H   0  0  0  0  0  0  0  0  0  0  0  0
   -1.6102   -3.0166    2.5526 H   0  0  0  0  0  0  0  0  0  0  0  0
   -2.0084   -4.6954   -1.8783 H   0  0  0  0  0  0  0  0  0  0  0  0
   -2.0807   -4.3710    0.5578 H   0  0  0  0  0  0  0  0  0  0  0  0
    0.4689    0.5094   -1.3017 H   0  0  0  0  0  0  0  0  0  0  0  0
   -0.0586   -0.9891   -3.4356 H   0  0  0  0  0  0  0  0  0  0  0  0
   -1.0306   -2.9692   -3.3405 H   0  0  0  0  0  0  0  0  0  0  0  0
  1 13  1  0  0  0  0
  1  2  2  0  0  0  0
  2 14  1  0  0  0  0
  3  2  1  0  0  0  0
  3 15  1  0  0  0  0
  4  3  2  0  0  0  0
  5  6  2  0  0  0  0
  5  4  1  0  0  0  0
  6  1  1  0  0  0  0
  7  5  1  0  0  0  0
  8  7  2  0  0  0  0
  8  9  1  0  0  0  0
  9 10  2  0  0  0  0
 10  4  1  0  0  0  0
 10 17  1  0  0  0  0
 11  6  1  0  0  0  0
 12  7  1  0  0  0  0
 16  9  1  0  0  0  0
 18 11  1  0  0  0  0
 19 12  1  0  0  0  0
 20  8  1  0  0  0  0
M  END
