
 OpenBabel09252019263D

 66 70  0  0  0  0  0  0  0  0999 V2000
   -2.3705  -18.8155   -1.8712 C   0  0  0  0  0  0  0  0  0  0  0  0
   -2.8823  -17.6882   -1.2254 C   0  0  0  0  0  0  0  0  0  0  0  0
   -2.3794  -16.3439   -1.4246 C   0  0  0  0  0  0  0  0  0  0  0  0
   -3.0143  -15.1408   -0.9206 C   0  0  0  0  0  0  0  0  0  0  0  0
   -2.4446  -13.8014   -0.9882 C   0  0  0  0  0  0  0  0  0  0  0  0
   -3.0072  -12.5960   -0.3994 C   0  0  0  0  0  0  0  0  0  0  0  0
   -2.4795  -11.2726   -0.5179 C   0  0  0  0  0  0  0  0  0  0  0  0
   -3.0912  -10.1061    0.0392 C   0  0  0  0  0  0  0  0  0  0  0  0
   -2.5052   -8.8322    0.0053 C   0  0  0  0  0  0  0  0  0  0  0  0
   -3.1230   -7.7091    0.5832 C   0  0  0  0  0  0  0  0  0  0  0  0
   -2.4968   -6.4624    0.5625 C   0  0  0  0  0  0  0  0  0  0  0  0
   -1.2486   -6.3248   -0.0357 C   0  0  0  0  0  0  0  0  0  0  0  0
   -0.6330   -7.4319   -0.6209 C   0  0  0  0  0  0  0  0  0  0  0  0
   -1.2586   -8.6912   -0.6096 C   0  0  0  0  0  0  0  0  0  0  0  0
   -0.6729   -9.8230   -1.1988 C   0  0  0  0  0  0  0  0  0  0  0  0
   -1.2750  -11.1209   -1.1933 C   0  0  0  0  0  0  0  0  0  0  0  0
   -0.7100  -12.2854   -1.8052 C   0  0  0  0  0  0  0  0  0  0  0  0
   -1.2398  -13.6442   -1.7245 C   0  0  0  0  0  0  0  0  0  0  0  0
   -0.6816  -14.8461   -2.3492 C   0  0  0  0  0  0  0  0  0  0  0  0
   -1.2142  -16.1933   -2.2185 C   0  0  0  0  0  0  0  0  0  0  0  0
   -0.7122  -17.4021   -2.8468 C   0  0  0  0  0  0  0  0  0  0  0  0
   -1.2927  -18.6674   -2.7013 C   0  0  0  0  0  0  0  0  0  0  0  0
   -3.8137  -18.0326   -0.1266 C   0  0  0  0  0  0  0  0  0  0  0  0
   -4.5129  -15.2574   -0.8403 C   0  0  0  0  0  0  0  0  0  0  0  0
   -4.1230  -12.6658    0.5669 C   0  0  0  0  0  0  0  0  0  0  0  0
    0.5608  -11.9958   -2.4985 C   0  0  0  0  0  0  0  0  0  0  0  0
    0.3427  -14.6580   -3.4137 C   0  0  0  0  0  0  0  0  0  0  0  0
    0.5518  -17.5075   -3.5943 C   0  0  0  0  0  0  0  0  0  0  0  0
   -4.9926  -18.9233   -0.4295 C   0  0  0  0  0  0  0  0  0  0  0  0
   -5.2351  -15.4024    0.4752 C   0  0  0  0  0  0  0  0  0  0  0  0
   -3.7540  -12.8733    2.0157 C   0  0  0  0  0  0  0  0  0  0  0  0
    0.4944  -11.4235   -3.8934 C   0  0  0  0  0  0  0  0  0  0  0  0
    1.8164  -14.7418   -3.0952 C   0  0  0  0  0  0  0  0  0  0  0  0
    0.4834  -17.6192   -5.0927 C   0  0  0  0  0  0  0  0  0  0  0  0
   -3.5380  -17.6469    1.0059 O   0  0  0  0  0  0  0  0  0  0  0  0
   -5.1088  -15.3373   -1.9149 O   0  0  0  0  0  0  0  0  0  0  0  0
   -5.2579  -12.4068    0.1886 O   0  0  0  0  0  0  0  0  0  0  0  0
    1.6015  -12.1284   -1.8626 O   0  0  0  0  0  0  0  0  0  0  0  0
   -0.0801  -14.4524   -4.5501 O   0  0  0  0  0  0  0  0  0  0  0  0
    1.5851  -17.6438   -2.9472 O   0  0  0  0  0  0  0  0  0  0  0  0
   -2.7505  -19.8155   -1.6753 H   0  0  0  0  0  0  0  0  0  0  0  0
   -4.0668  -10.1830    0.5217 H   0  0  0  0  0  0  0  0  0  0  0  0
   -4.0970   -7.8001    1.0598 H   0  0  0  0  0  0  0  0  0  0  0  0
   -2.9823   -5.6022    1.0163 H   0  0  0  0  0  0  0  0  0  0  0  0
   -0.7541   -5.3569   -0.0488 H   0  0  0  0  0  0  0  0  0  0  0  0
    0.3427   -7.3050   -1.0855 H   0  0  0  0  0  0  0  0  0  0  0  0
    0.3067   -9.6795   -1.6548 H   0  0  0  0  0  0  0  0  0  0  0  0
   -0.8490  -19.5478   -3.1644 H   0  0  0  0  0  0  0  0  0  0  0  0
   -4.7297  -19.9642   -0.2250 H   0  0  0  0  0  0  0  0  0  0  0  0
   -5.3021  -18.8155   -1.4728 H   0  0  0  0  0  0  0  0  0  0  0  0
   -5.8377  -18.6358    0.2014 H   0  0  0  0  0  0  0  0  0  0  0  0
   -5.7751  -16.3500    0.4949 H   0  0  0  0  0  0  0  0  0  0  0  0
   -5.9864  -14.6203    0.5873 H   0  0  0  0  0  0  0  0  0  0  0  0
   -4.5427  -15.3775    1.3169 H   0  0  0  0  0  0  0  0  0  0  0  0
   -2.8820  -13.5267    2.1041 H   0  0  0  0  0  0  0  0  0  0  0  0
   -4.5900  -13.3443    2.5397 H   0  0  0  0  0  0  0  0  0  0  0  0
   -3.5383  -11.9093    2.4831 H   0  0  0  0  0  0  0  0  0  0  0  0
    0.8743  -10.3983   -3.8814 H   0  0  0  0  0  0  0  0  0  0  0  0
   -0.5341  -11.4109   -4.2646 H   0  0  0  0  0  0  0  0  0  0  0  0
    1.1044  -12.0245   -4.5710 H   0  0  0  0  0  0  0  0  0  0  0  0
    2.3146  -13.8091   -3.3615 H   0  0  0  0  0  0  0  0  0  0  0  0
    2.2882  -15.5099   -3.7091 H   0  0  0  0  0  0  0  0  0  0  0  0
    1.9823  -14.9608   -2.0384 H   0  0  0  0  0  0  0  0  0  0  0  0
    1.2492  -16.9804   -5.5395 H   0  0  0  0  0  0  0  0  0  0  0  0
   -0.4939  -17.3021   -5.4660 H   0  0  0  0  0  0  0  0  0  0  0  0
    0.6551  -18.6601   -5.3809 H   0  0  0  0  0  0  0  0  0  0  0  0
  1  2  1  0  0  0  0
  1 41  1  0  0  0  0
  2  3  2  0  0  0  0
  2 23  1  0  0  0  0
  3  4  1  0  0  0  0
  3 20  1  0  0  0  0
  4  5  2  0  0  0  0
  4 24  1  0  0  0  0
  5  6  1  0  0  0  0
  5 18  1  0  0  0  0
  6  7  2  0  0  0  0
  6 25  1  0  0  0  0
  7  8  1  0  0  0  0
  7 16  1  0  0  0  0
  8  9  2  0  0  0  0
  8 42  1  0  0  0  0
  9 10  1  0  0  0  0
  9 14  1  0  0  0  0
 10 11  2  0  0  0  0
 10 43  1  0  0  0  0
 11 12  1  0  0  0  0
 11 44  1  0  0  0  0
 12 13  2  0  0  0  0
 12 45  1  0  0  0  0
 13 14  1  0  0  0  0
 13 46  1  0  0  0  0
 14 15  2  0  0  0  0
 15 16  1  0  0  0  0
 15 47  1  0  0  0  0
 16 17  2  0  0  0  0
 17 18  1  0  0  0  0
 17 26  1  0  0  0  0
 18 19  2  0  0  0  0
 19 20  1  0  0  0  0
 19 27  1  0  0  0  0
 20 21  2  0  0  0  0
 21 22  1  0  0  0  0
 21 28  1  0  0  0  0
 22  1  2  0  0  0  0
 22 48  1  0  0  0  0
 23 29  1  0  0  0  0
 23 35  2  0  0  0  0
 24 30  1  0  0  0  0
 24 36  2  0  0  0  0
 25 31  1  0  0  0  0
 25 37  2  0  0  0  0
 26 32  1  0  0  0  0
 26 38  2  0  0  0  0
 27 33  1  0  0  0  0
 27 39  2  0  0  0  0
 28 34  1  0  0  0  0
 28 40  2  0  0  0  0
 29 49  1  0  0  0  0
 29 50  1  0  0  0  0
 29 51  1  0  0  0  0
 30 52  1  0  0  0  0
 30 53  1  0  0  0  0
 30 54  1  0  0  0  0
 31 55  1  0  0  0  0
 31 56  1  0  0  0  0
 31 57  1  0  0  0  0
 32 58  1  0  0  0  0
 32 59  1  0  0  0  0
 32 60  1  0  0  0  0
 33 61  1  0  0  0  0
 33 62  1  0  0  0  0
 33 63  1  0  0  0  0
 34 64  1  0  0  0  0
 34 65  1  0  0  0  0
 34 66  1  0  0  0  0
M  END
