
 OpenBabel10132008253D

204221  0  0  0  0  0  0  0  0999 V2000
    9.8228  -19.2603    8.1346 C   0  0  0  0  0  0  0  0  0  0  0  0
    8.9519  -19.1476    9.2011 C   0  0  0  0  0  0  0  0  0  0  0  0
    8.0804  -18.0684    9.2453 C   0  0  0  0  0  0  0  0  0  0  0  0
    8.0700  -17.0851    8.2381 C   0  0  0  0  0  0  0  0  0  0  0  0
    8.9462  -17.1417    7.1330 C   0  0  0  0  0  0  0  0  0  0  0  0
    9.8240  -18.2825    7.1239 C   0  0  0  0  0  0  0  0  0  0  0  0
   10.7493  -18.5952    6.0217 C   0  0  0  0  0  0  0  0  0  0  0  0
   10.3103  -19.1956    5.0465 O   0  0  0  0  0  0  0  0  0  0  0  0
   12.2068  -18.2864    6.2218 C   0  0  0  0  0  0  0  0  0  0  0  0
   10.4843  -20.1226    8.0731 H   0  0  0  0  0  0  0  0  0  0  0  0
    8.9357  -19.9013    9.9841 H   0  0  0  0  0  0  0  0  0  0  0  0
    7.3920  -18.0037   10.0882 H   0  0  0  0  0  0  0  0  0  0  0  0
   12.3487  -17.5752    7.0401 H   0  0  0  0  0  0  0  0  0  0  0  0
   12.6107  -17.8450    5.3070 H   0  0  0  0  0  0  0  0  0  0  0  0
   12.7413  -19.2113    6.4542 H   0  0  0  0  0  0  0  0  0  0  0  0
    7.1533  -16.0395    8.3614 C   0  0  0  0  0  0  0  0  0  0  0  0
    7.0645  -14.9882    7.4427 C   0  0  0  0  0  0  0  0  0  0  0  0
    7.9147  -14.9272    6.3283 C   0  0  0  0  0  0  0  0  0  0  0  0
    8.8341  -16.0481    6.1845 C   0  0  0  0  0  0  0  0  0  0  0  0
    9.7708  -16.0466    5.0424 C   0  0  0  0  0  0  0  0  0  0  0  0
   10.9054  -15.6216    5.2425 O   0  0  0  0  0  0  0  0  0  0  0  0
    9.2921  -16.5657    3.7111 C   0  0  0  0  0  0  0  0  0  0  0  0
    6.4775  -16.0426    9.2200 H   0  0  0  0  0  0  0  0  0  0  0  0
    9.4762  -15.8164    2.9389 H   0  0  0  0  0  0  0  0  0  0  0  0
    8.2237  -16.7945    3.7372 H   0  0  0  0  0  0  0  0  0  0  0  0
    9.8427  -17.4662    3.4383 H   0  0  0  0  0  0  0  0  0  0  0  0
    6.1000  -13.9945    7.6870 C   0  0  0  0  0  0  0  0  0  0  0  0
    5.8815  -12.8768    6.8498 C   0  0  0  0  0  0  0  0  0  0  0  0
    6.6990  -12.7636    5.7258 C   0  0  0  0  0  0  0  0  0  0  0  0
    7.7265  -13.7504    5.5108 C   0  0  0  0  0  0  0  0  0  0  0  0
    8.6447  -13.4623    4.3886 C   0  0  0  0  0  0  0  0  0  0  0  0
    8.2702  -13.6921    3.2437 O   0  0  0  0  0  0  0  0  0  0  0  0
    9.9301  -12.7489    4.7134 C   0  0  0  0  0  0  0  0  0  0  0  0
    5.4595  -14.1246    8.5628 H   0  0  0  0  0  0  0  0  0  0  0  0
   10.1897  -12.8639    5.7693 H   0  0  0  0  0  0  0  0  0  0  0  0
    9.8174  -11.6851    4.4887 H   0  0  0  0  0  0  0  0  0  0  0  0
   10.7394  -13.1674    4.1095 H   0  0  0  0  0  0  0  0  0  0  0  0
    2.3090   -6.6680    4.1835 C   0  0  0  0  0  0  0  0  0  0  0  0
    3.1720   -6.7746    3.0920 C   0  0  0  0  0  0  0  0  0  0  0  0
    4.1390   -7.8083    3.1370 C   0  0  0  0  0  0  0  0  0  0  0  0
    4.2465   -8.7425    4.1841 C   0  0  0  0  0  0  0  0  0  0  0  0
    3.3820   -8.6980    5.2838 C   0  0  0  0  0  0  0  0  0  0  0  0
    2.4510   -7.5953    5.2713 C   0  0  0  0  0  0  0  0  0  0  0  0
    1.5986   -7.3269    6.4513 C   0  0  0  0  0  0  0  0  0  0  0  0
    0.4247   -7.6800    6.4271 O   0  0  0  0  0  0  0  0  0  0  0  0
    2.1987   -6.4986    7.5568 C   0  0  0  0  0  0  0  0  0  0  0  0
    4.8225   -7.9242    2.2921 H   0  0  0  0  0  0  0  0  0  0  0  0
    3.2894   -6.5790    7.5602 H   0  0  0  0  0  0  0  0  0  0  0  0
    1.8251   -6.8545    8.5205 H   0  0  0  0  0  0  0  0  0  0  0  0
    1.9163   -5.4517    7.4191 H   0  0  0  0  0  0  0  0  0  0  0  0
    5.2339   -9.7321    4.0937 C   0  0  0  0  0  0  0  0  0  0  0  0
    5.4151  -10.7281    5.0623 C   0  0  0  0  0  0  0  0  0  0  0  0
    4.5805  -10.7906    6.1859 C   0  0  0  0  0  0  0  0  0  0  0  0
    3.5483   -9.7701    6.2491 C   0  0  0  0  0  0  0  0  0  0  0  0
    2.5534   -9.8631    7.3332 C   0  0  0  0  0  0  0  0  0  0  0  0
    2.8355   -9.3482    8.4098 O   0  0  0  0  0  0  0  0  0  0  0  0
    1.2624  -10.5839    7.0396 C   0  0  0  0  0  0  0  0  0  0  0  0
    5.8896   -9.7333    3.2187 H   0  0  0  0  0  0  0  0  0  0  0  0
    1.3251  -11.6260    7.3525 H   0  0  0  0  0  0  0  0  0  0  0  0
    1.0296  -10.5462    5.9717 H   0  0  0  0  0  0  0  0  0  0  0  0
    0.4477  -10.0963    7.5819 H   0  0  0  0  0  0  0  0  0  0  0  0
    6.4429  -11.6702    4.8626 C   0  0  0  0  0  0  0  0  0  0  0  0
    4.8788  -11.8750    7.0902 C   0  0  0  0  0  0  0  0  0  0  0  0
    4.1673  -11.9939    8.3828 C   0  0  0  0  0  0  0  0  0  0  0  0
    3.2190  -12.7664    8.4683 O   0  0  0  0  0  0  0  0  0  0  0  0
    4.7680  -11.2779    9.5644 C   0  0  0  0  0  0  0  0  0  0  0  0
    7.0457  -11.5677    3.9567 H   0  0  0  0  0  0  0  0  0  0  0  0
    5.3555  -10.4140    9.2412 H   0  0  0  0  0  0  0  0  0  0  0  0
    5.4138  -11.9656   10.1163 H   0  0  0  0  0  0  0  0  0  0  0  0
    3.9679  -10.9248   10.2203 H   0  0  0  0  0  0  0  0  0  0  0  0
    1.3367   -5.6397    4.1353 C   0  0  0  0  0  0  0  0  0  0  0  0
    1.1757   -4.7568    3.0511 C   0  0  0  0  0  0  0  0  0  0  0  0
    2.0013   -4.8377    1.9233 C   0  0  0  0  0  0  0  0  0  0  0  0
    3.0304   -5.8467    2.0043 C   0  0  0  0  0  0  0  0  0  0  0  0
    4.0586   -5.9501    0.9455 C   0  0  0  0  0  0  0  0  0  0  0  0
    3.9314   -6.8114    0.0824 O   0  0  0  0  0  0  0  0  0  0  0  0
    5.2808   -5.0812    1.0860 C   0  0  0  0  0  0  0  0  0  0  0  0
    0.6372   -5.5405    4.9691 H   0  0  0  0  0  0  0  0  0  0  0  0
    5.0593   -4.1851    1.6724 H   0  0  0  0  0  0  0  0  0  0  0  0
    5.6194   -4.7686    0.0948 H   0  0  0  0  0  0  0  0  0  0  0  0
    6.0739   -5.6475    1.5807 H   0  0  0  0  0  0  0  0  0  0  0  0
    0.1573   -3.7974    3.1218 C   0  0  0  0  0  0  0  0  0  0  0  0
   -0.0896   -2.8628    2.1079 C   0  0  0  0  0  0  0  0  0  0  0  0
    0.6762   -2.8642    0.9350 C   0  0  0  0  0  0  0  0  0  0  0  0
    1.6875   -3.9043    0.8560 C   0  0  0  0  0  0  0  0  0  0  0  0
    2.4093   -4.0651   -0.4196 C   0  0  0  0  0  0  0  0  0  0  0  0
    3.4243   -3.3981   -0.5876 O   0  0  0  0  0  0  0  0  0  0  0  0
    1.8461   -5.0369   -1.4251 C   0  0  0  0  0  0  0  0  0  0  0  0
   -0.4727   -3.7737    4.0152 H   0  0  0  0  0  0  0  0  0  0  0  0
    1.3347   -4.5017   -2.2254 H   0  0  0  0  0  0  0  0  0  0  0  0
    1.1400   -5.7246   -0.9509 H   0  0  0  0  0  0  0  0  0  0  0  0
    2.6601   -5.6260   -1.8548 H   0  0  0  0  0  0  0  0  0  0  0  0
   -1.1277   -1.9307    2.3007 C   0  0  0  0  0  0  0  0  0  0  0  0
   -1.4852   -0.9325    1.3618 C   0  0  0  0  0  0  0  0  0  0  0  0
   -0.7494   -0.8934    0.1776 C   0  0  0  0  0  0  0  0  0  0  0  0
    0.3271   -1.8278   -0.0069 C   0  0  0  0  0  0  0  0  0  0  0  0
    1.1310   -1.6238   -1.2331 C   0  0  0  0  0  0  0  0  0  0  0  0
    0.7245   -2.0918   -2.2908 O   0  0  0  0  0  0  0  0  0  0  0  0
    2.3213   -0.7068   -1.1311 C   0  0  0  0  0  0  0  0  0  0  0  0
   -1.7027   -2.0069    3.2270 H   0  0  0  0  0  0  0  0  0  0  0  0
    2.7119   -0.6833   -0.1100 H   0  0  0  0  0  0  0  0  0  0  0  0
    2.0277    0.3031   -1.4274 H   0  0  0  0  0  0  0  0  0  0  0  0
    3.1134   -1.0639   -1.7950 H   0  0  0  0  0  0  0  0  0  0  0  0
   -5.2631    5.0488   -1.5506 C   0  0  0  0  0  0  0  0  0  0  0  0
   -4.3926    4.9276   -2.6332 C   0  0  0  0  0  0  0  0  0  0  0  0
   -3.4722    3.8535   -2.5912 C   0  0  0  0  0  0  0  0  0  0  0  0
   -3.3689    2.9418   -1.5244 C   0  0  0  0  0  0  0  0  0  0  0  0
   -4.2054    3.0308   -0.4055 C   0  0  0  0  0  0  0  0  0  0  0  0
   -5.1421    4.1287   -0.4512 C   0  0  0  0  0  0  0  0  0  0  0  0
   -6.0249    4.4028    0.7032 C   0  0  0  0  0  0  0  0  0  0  0  0
   -7.1722    3.9714    0.6814 O   0  0  0  0  0  0  0  0  0  0  0  0
   -5.4980    5.3249    1.7712 C   0  0  0  0  0  0  0  0  0  0  0  0
   -2.8040    3.7028   -3.4423 H   0  0  0  0  0  0  0  0  0  0  0  0
   -4.4045    5.3228    1.7853 H   0  0  0  0  0  0  0  0  0  0  0  0
   -5.8555    4.9896    2.7484 H   0  0  0  0  0  0  0  0  0  0  0  0
   -5.8528    6.3412    1.5825 H   0  0  0  0  0  0  0  0  0  0  0  0
   -2.3948    1.9415   -1.6087 C   0  0  0  0  0  0  0  0  0  0  0  0
   -2.1592    1.0134   -0.5882 C   0  0  0  0  0  0  0  0  0  0  0  0
   -2.9326    1.0182    0.5792 C   0  0  0  0  0  0  0  0  0  0  0  0
   -3.9930    2.0125    0.6111 C   0  0  0  0  0  0  0  0  0  0  0  0
   -4.9361    1.9736    1.7433 C   0  0  0  0  0  0  0  0  0  0  0  0
   -4.6394    2.6036    2.7527 O   0  0  0  0  0  0  0  0  0  0  0  0
   -6.1954    1.1614    1.5815 C   0  0  0  0  0  0  0  0  0  0  0  0
   -1.7731    1.8958   -2.5068 H   0  0  0  0  0  0  0  0  0  0  0  0
   -6.1101    0.2164    2.1182 H   0  0  0  0  0  0  0  0  0  0  0  0
   -6.3937    0.9543    0.5260 H   0  0  0  0  0  0  0  0  0  0  0  0
   -7.0421    1.7228    1.9845 H   0  0  0  0  0  0  0  0  0  0  0  0
   -1.1180    0.0869   -0.7729 C   0  0  0  0  0  0  0  0  0  0  0  0
   -2.5385    0.0294    1.5571 C   0  0  0  0  0  0  0  0  0  0  0  0
   -3.1819   -0.0053    2.8891 C   0  0  0  0  0  0  0  0  0  0  0  0
   -4.0736   -0.8219    3.0921 O   0  0  0  0  0  0  0  0  0  0  0  0
   -2.5784    0.8556    3.9682 C   0  0  0  0  0  0  0  0  0  0  0  0
   -0.5788    0.1242   -1.7227 H   0  0  0  0  0  0  0  0  0  0  0  0
   -2.0572    1.7151    3.5376 H   0  0  0  0  0  0  0  0  0  0  0  0
   -1.8707    0.2628    4.5532 H   0  0  0  0  0  0  0  0  0  0  0  0
   -3.3714    1.2255    4.6234 H   0  0  0  0  0  0  0  0  0  0  0  0
   -6.2219    6.0862   -1.6190 C   0  0  0  0  0  0  0  0  0  0  0  0
   -6.3233    7.0002   -2.6851 C   0  0  0  0  0  0  0  0  0  0  0  0
   -5.4521    6.9481   -3.7816 C   0  0  0  0  0  0  0  0  0  0  0  0
   -4.4787    5.8812   -3.7088 C   0  0  0  0  0  0  0  0  0  0  0  0
   -3.4817    5.6992   -4.7848 C   0  0  0  0  0  0  0  0  0  0  0  0
   -3.7394    4.9153   -5.6920 O   0  0  0  0  0  0  0  0  0  0  0  0
   -2.1420    6.3661   -4.6180 C   0  0  0  0  0  0  0  0  0  0  0  0
   -6.9482    6.1799   -0.8077 H   0  0  0  0  0  0  0  0  0  0  0  0
   -2.1994    7.1874   -3.8986 H   0  0  0  0  0  0  0  0  0  0  0  0
   -1.8152    6.7678   -5.5806 H   0  0  0  0  0  0  0  0  0  0  0  0
   -1.4127    5.6326   -4.2649 H   0  0  0  0  0  0  0  0  0  0  0  0
   -7.3270    7.9722   -2.6146 C   0  0  0  0  0  0  0  0  0  0  0  0
   -7.5085    8.9620   -3.5864 C   0  0  0  0  0  0  0  0  0  0  0  0
   -6.6756    9.0227   -4.7109 C   0  0  0  0  0  0  0  0  0  0  0  0
   -5.6738    7.9684   -4.7983 C   0  0  0  0  0  0  0  0  0  0  0  0
   -4.7925    7.9595   -5.9811 C   0  0  0  0  0  0  0  0  0  0  0  0
   -3.7276    8.5631   -5.8935 O   0  0  0  0  0  0  0  0  0  0  0  0
   -5.2459    7.2187   -7.2125 C   0  0  0  0  0  0  0  0  0  0  0  0
   -7.9993    7.9632   -1.7521 H   0  0  0  0  0  0  0  0  0  0  0  0
   -5.2643    7.8976   -8.0665 H   0  0  0  0  0  0  0  0  0  0  0  0
   -6.2448    6.7974   -7.0735 H   0  0  0  0  0  0  0  0  0  0  0  0
   -4.5488    6.4113   -7.4398 H   0  0  0  0  0  0  0  0  0  0  0  0
   -8.5476    9.8908   -3.3899 C   0  0  0  0  0  0  0  0  0  0  0  0
   -8.8550   10.9414   -4.2857 C   0  0  0  0  0  0  0  0  0  0  0  0
   -8.0457   11.0583   -5.4156 C   0  0  0  0  0  0  0  0  0  0  0  0
   -6.9586   10.1315   -5.5938 C   0  0  0  0  0  0  0  0  0  0  0  0
   -6.0897   10.4051   -6.7586 C   0  0  0  0  0  0  0  0  0  0  0  0
   -6.4549   10.0289   -7.8672 O   0  0  0  0  0  0  0  0  0  0  0  0
   -4.8845   11.2792   -6.5334 C   0  0  0  0  0  0  0  0  0  0  0  0
   -9.1713    9.7629   -2.5015 H   0  0  0  0  0  0  0  0  0  0  0  0
   -4.5887   11.2777   -5.4807 H   0  0  0  0  0  0  0  0  0  0  0  0
   -5.1189   12.3028   -6.8369 H   0  0  0  0  0  0  0  0  0  0  0  0
   -4.0485   10.9045   -7.1295 H   0  0  0  0  0  0  0  0  0  0  0  0
  -12.6790   16.8565   -7.1077 C   0  0  0  0  0  0  0  0  0  0  0  0
  -11.7174   16.8648   -8.1005 C   0  0  0  0  0  0  0  0  0  0  0  0
  -10.7142   15.9046   -8.0760 C   0  0  0  0  0  0  0  0  0  0  0  0
  -10.6509   14.9283   -7.0639 C   0  0  0  0  0  0  0  0  0  0  0  0
  -11.6030   14.8795   -6.0237 C   0  0  0  0  0  0  0  0  0  0  0  0
  -12.6243   15.8901   -6.0892 C   0  0  0  0  0  0  0  0  0  0  0  0
  -13.7377   15.9922   -5.1292 C   0  0  0  0  0  0  0  0  0  0  0  0
  -14.7600   15.3518   -5.3504 O   0  0  0  0  0  0  0  0  0  0  0  0
  -13.5994   16.9820   -4.0059 C   0  0  0  0  0  0  0  0  0  0  0  0
  -13.4833   17.5896   -7.1334 H   0  0  0  0  0  0  0  0  0  0  0  0
  -11.7524   17.6040   -8.8968 H   0  0  0  0  0  0  0  0  0  0  0  0
   -9.9708   15.9229   -8.8731 H   0  0  0  0  0  0  0  0  0  0  0  0
  -12.5491   17.2310   -3.8306 H   0  0  0  0  0  0  0  0  0  0  0  0
  -14.0066   16.5471   -3.0893 H   0  0  0  0  0  0  0  0  0  0  0  0
  -14.1482   17.8931   -4.2581 H   0  0  0  0  0  0  0  0  0  0  0  0
   -9.6169   13.9895   -7.1204 C   0  0  0  0  0  0  0  0  0  0  0  0
   -9.4340   12.9952   -6.1515 C   0  0  0  0  0  0  0  0  0  0  0  0
  -10.2971   12.8967   -5.0510 C   0  0  0  0  0  0  0  0  0  0  0  0
  -11.4118   13.8276   -5.0474 C   0  0  0  0  0  0  0  0  0  0  0  0
  -12.4314   13.6913   -3.9900 C   0  0  0  0  0  0  0  0  0  0  0  0
  -12.2915   14.3617   -2.9721 O   0  0  0  0  0  0  0  0  0  0  0  0
  -13.5753   12.7400   -4.2327 C   0  0  0  0  0  0  0  0  0  0  0  0
   -8.9155   14.0409   -7.9565 H   0  0  0  0  0  0  0  0  0  0  0  0
  -13.4611   11.8430   -3.6245 H   0  0  0  0  0  0  0  0  0  0  0  0
  -13.6267   12.4512   -5.2862 H   0  0  0  0  0  0  0  0  0  0  0  0
  -14.5155   13.2271   -3.9631 H   0  0  0  0  0  0  0  0  0  0  0  0
   -8.3567   12.1052   -6.3159 C   0  0  0  0  0  0  0  0  0  0  0  0
   -9.9316   11.8773   -4.0981 C   0  0  0  0  0  0  0  0  0  0  0  0
  -10.6175   11.7974   -2.7881 C   0  0  0  0  0  0  0  0  0  0  0  0
  -11.4389   10.9067   -2.5999 O   0  0  0  0  0  0  0  0  0  0  0  0
  -10.1281   12.7186   -1.7012 C   0  0  0  0  0  0  0  0  0  0  0  0
   -7.7482   12.2204   -7.2160 H   0  0  0  0  0  0  0  0  0  0  0  0
   -9.6656   13.6152   -2.1231 H   0  0  0  0  0  0  0  0  0  0  0  0
   -9.3932   12.1927   -1.0862 H   0  0  0  0  0  0  0  0  0  0  0  0
  -10.9722   13.0261   -1.0784 H   0  0  0  0  0  0  0  0  0  0  0  0
  1  2  2  0  0  0  0
  2  3  1  0  0  0  0
  2 11  1  0  0  0  0
  3 12  1  0  0  0  0
  4 16  1  0  0  0  0
  4  3  2  0  0  0  0
  5  4  1  0  0  0  0
  6  5  2  0  0  0  0
  6  1  1  0  0  0  0
  7  9  1  0  0  0  0
  7  6  1  0  0  0  0
  8  7  2  0  0  0  0
  9 15  1  0  0  0  0
  9 13  1  0  0  0  0
 10  1  1  0  0  0  0
 14  9  1  0  0  0  0
 16 23  1  0  0  0  0
 17 27  1  0  0  0  0
 17 16  2  0  0  0  0
 18 17  1  0  0  0  0
 19 18  2  0  0  0  0
 19  5  1  0  0  0  0
 20 21  2  0  0  0  0
 20 19  1  0  0  0  0
 22 25  1  0  0  0  0
 22 20  1  0  0  0  0
 24 22  1  0  0  0  0
 26 22  1  0  0  0  0
 27 34  1  0  0  0  0
 28 63  1  0  0  0  0
 28 27  2  0  0  0  0
 29 28  1  0  0  0  0
 30 29  2  0  0  0  0
 30 18  1  0  0  0  0
 31 33  1  0  0  0  0
 31 30  1  0  0  0  0
 32 31  2  0  0  0  0
 33 35  1  0  0  0  0
 36 33  1  0  0  0  0
 37 33  1  0  0  0  0
 38 43  2  0  0  0  0
 39 40  2  0  0  0  0
 39 38  1  0  0  0  0
 40 41  1  0  0  0  0
 41 42  1  0  0  0  0
 42 54  2  0  0  0  0
 43 42  1  0  0  0  0
 43 44  1  0  0  0  0
 44 46  1  0  0  0  0
 45 44  2  0  0  0  0
 46 48  1  0  0  0  0
 46 49  1  0  0  0  0
 47 40  1  0  0  0  0
 50 46  1  0  0  0  0
 51 41  2  0  0  0  0
 51 52  1  0  0  0  0
 52 53  1  0  0  0  0
 53 54  1  0  0  0  0
 53 63  2  0  0  0  0
 54 55  1  0  0  0  0
 55 56  2  0  0  0  0
 57 55  1  0  0  0  0
 57 59  1  0  0  0  0
 57 61  1  0  0  0  0
 58 51  1  0  0  0  0
 60 57  1  0  0  0  0
 62 52  2  0  0  0  0
 62 29  1  0  0  0  0
 63 64  1  0  0  0  0
 64 65  2  0  0  0  0
 64 66  1  0  0  0  0
 66 69  1  0  0  0  0
 66 70  1  0  0  0  0
 67 62  1  0  0  0  0
 68 66  1  0  0  0  0
 71 38  1  0  0  0  0
 71 78  1  0  0  0  0
 72 82  1  0  0  0  0
 72 71  2  0  0  0  0
 73 74  2  0  0  0  0
 73 72  1  0  0  0  0
 74 39  1  0  0  0  0
 75 77  1  0  0  0  0
 75 74  1  0  0  0  0
 76 75  2  0  0  0  0
 77 81  1  0  0  0  0
 77 79  1  0  0  0  0
 80 77  1  0  0  0  0
 82 89  1  0  0  0  0
 83 93  1  0  0  0  0
 83 82  2  0  0  0  0
 84 83  1  0  0  0  0
 85 84  2  0  0  0  0
 85 73  1  0  0  0  0
 86 85  1  0  0  0  0
 87 86  2  0  0  0  0
 88 91  1  0  0  0  0
 88 86  1  0  0  0  0
 90 88  1  0  0  0  0
 92 88  1  0  0  0  0
 93100  1  0  0  0  0
 94129  1  0  0  0  0
 94 93  2  0  0  0  0
 95 94  1  0  0  0  0
 96 95  2  0  0  0  0
 96 84  1  0  0  0  0
 97 99  1  0  0  0  0
 97 96  1  0  0  0  0
 98 97  2  0  0  0  0
 99101  1  0  0  0  0
102 99  1  0  0  0  0
103 99  1  0  0  0  0
104109  2  0  0  0  0
105106  2  0  0  0  0
105104  1  0  0  0  0
106107  1  0  0  0  0
107108  1  0  0  0  0
108120  2  0  0  0  0
109108  1  0  0  0  0
109110  1  0  0  0  0
110112  1  0  0  0  0
111110  2  0  0  0  0
112114  1  0  0  0  0
112115  1  0  0  0  0
113106  1  0  0  0  0
116112  1  0  0  0  0
117107  2  0  0  0  0
117118  1  0  0  0  0
118119  1  0  0  0  0
119120  1  0  0  0  0
119129  2  0  0  0  0
120121  1  0  0  0  0
121122  2  0  0  0  0
123121  1  0  0  0  0
123127  1  0  0  0  0
123125  1  0  0  0  0
124117  1  0  0  0  0
126123  1  0  0  0  0
128118  2  0  0  0  0
128 95  1  0  0  0  0
129130  1  0  0  0  0
130131  2  0  0  0  0
130132  1  0  0  0  0
132135  1  0  0  0  0
132136  1  0  0  0  0
133128  1  0  0  0  0
134132  1  0  0  0  0
137104  1  0  0  0  0
137144  1  0  0  0  0
138148  1  0  0  0  0
138137  2  0  0  0  0
139140  2  0  0  0  0
139138  1  0  0  0  0
140105  1  0  0  0  0
141143  1  0  0  0  0
141140  1  0  0  0  0
142141  2  0  0  0  0
143147  1  0  0  0  0
143145  1  0  0  0  0
146143  1  0  0  0  0
148155  1  0  0  0  0
149159  1  0  0  0  0
149148  2  0  0  0  0
150149  1  0  0  0  0
151150  2  0  0  0  0
151139  1  0  0  0  0
152153  2  0  0  0  0
152151  1  0  0  0  0
154157  1  0  0  0  0
154152  1  0  0  0  0
156154  1  0  0  0  0
158154  1  0  0  0  0
159166  1  0  0  0  0
160197  1  0  0  0  0
160159  2  0  0  0  0
161160  1  0  0  0  0
162161  2  0  0  0  0
162150  1  0  0  0  0
163165  1  0  0  0  0
163162  1  0  0  0  0
164163  2  0  0  0  0
165167  1  0  0  0  0
168165  1  0  0  0  0
169165  1  0  0  0  0
170175  2  0  0  0  0
171172  2  0  0  0  0
171170  1  0  0  0  0
172173  1  0  0  0  0
173174  1  0  0  0  0
174188  2  0  0  0  0
175174  1  0  0  0  0
175176  1  0  0  0  0
176178  1  0  0  0  0
177176  2  0  0  0  0
178182  1  0  0  0  0
178183  1  0  0  0  0
179170  1  0  0  0  0
180171  1  0  0  0  0
181172  1  0  0  0  0
184178  1  0  0  0  0
185173  2  0  0  0  0
185186  1  0  0  0  0
186187  1  0  0  0  0
187188  1  0  0  0  0
187197  2  0  0  0  0
188189  1  0  0  0  0
189190  2  0  0  0  0
191189  1  0  0  0  0
191195  1  0  0  0  0
191193  1  0  0  0  0
192185  1  0  0  0  0
194191  1  0  0  0  0
196186  2  0  0  0  0
196161  1  0  0  0  0
197198  1  0  0  0  0
198199  2  0  0  0  0
198200  1  0  0  0  0
200203  1  0  0  0  0
200204  1  0  0  0  0
201196  1  0  0  0  0
202200  1  0  0  0  0
M  END
