
     RDKit          3D

186192  0  0  1  0  0  0  0  0999 V2000
   -5.4706   -5.4433   -5.3378 H   0  0  0  0  0  0  0  0  0  0  0  0
   -5.2405   -6.3989   -5.2720 O   0  0  0  0  0  0  0  0  0  0  0  0
   -4.5955   -6.5010   -4.0722 C   0  0  0  0  0  0  0  0  0  0  0  0
   -5.2892   -6.1952   -2.8960 C   0  0  0  0  0  0  0  0  0  0  0  0
   -6.6223   -5.8970   -2.7830 O   0  0  0  0  0  0  0  0  0  0  0  0
   -7.5108   -6.5378   -3.6984 C   0  0  0  0  0  0  0  0  0  0  0  0
   -7.5683   -5.9828   -4.6390 H   0  0  0  0  0  0  0  0  0  0  0  0
   -7.2501   -7.5904   -3.8644 H   0  0  0  0  0  0  0  0  0  0  0  0
   -8.5118   -6.5130   -3.2505 H   0  0  0  0  0  0  0  0  0  0  0  0
   -4.5906   -6.0989   -1.6849 C   0  0  0  0  0  0  0  0  0  0  0  0
   -5.1387   -5.8219   -0.7889 H   0  0  0  0  0  0  0  0  0  0  0  0
   -3.2108   -6.3499   -1.6130 C   0  0  0  0  0  0  0  0  0  0  0  0
   -2.5036   -6.1534   -0.2777 C   0  0  1  0  0  0  0  0  0  0  0  0
   -2.8169   -5.1712    0.0900 H   0  0  0  0  0  0  0  0  0  0  0  0
   -3.0395   -7.1379    0.6131 O   0  0  0  0  0  0  0  0  0  0  0  0
   -3.5148   -6.6570    1.3143 H   0  0  0  0  0  0  0  0  0  0  0  0
   -0.9451   -6.2075   -0.2568 C   0  0  1  0  0  0  0  0  0  0  0  0
   -0.5605   -5.8908   -1.2307 H   0  0  0  0  0  0  0  0  0  0  0  0
   -0.4528   -5.3069    0.7806 O   0  0  0  0  0  0  0  0  0  0  0  0
    0.2551   -4.2661    0.2262 C   0  0  0  0  0  0  0  0  0  0  0  0
   -0.3745   -3.0451   -0.0289 C   0  0  0  0  0  0  0  0  0  0  0  0
   -1.6779   -2.7762    0.3153 O   0  0  0  0  0  0  0  0  0  0  0  0
   -1.8689   -2.8453    1.7321 C   0  0  0  0  0  0  0  0  0  0  0  0
   -2.1657   -3.8570    2.0239 H   0  0  0  0  0  0  0  0  0  0  0  0
   -0.9858   -2.5299    2.2974 H   0  0  0  0  0  0  0  0  0  0  0  0
   -2.6980   -2.1780    1.9805 H   0  0  0  0  0  0  0  0  0  0  0  0
    0.2793   -2.0524   -0.7627 C   0  0  0  0  0  0  0  0  0  0  0  0
   -0.2723   -1.1484   -1.0045 H   0  0  0  0  0  0  0  0  0  0  0  0
    1.5906   -2.2404   -1.2418 C   0  0  0  0  0  0  0  0  0  0  0  0
    2.2799   -1.2817   -2.2374 C   0  0  1  0  0  0  0  0  0  0  0  0
    3.2715   -1.7350   -2.3618 H   0  0  0  0  0  0  0  0  0  0  0  0
    1.8000   -1.3370   -3.6126 O   0  0  0  0  0  0  0  0  0  0  0  0
    0.4675   -1.5674   -3.7989 C   0  0  0  0  0  0  0  0  0  0  0  0
    0.0395   -2.8578   -4.1561 C   0  0  0  0  0  0  0  0  0  0  0  0
    0.9196   -3.9059   -4.3498 O   0  0  0  0  0  0  0  0  0  0  0  0
    1.8447   -3.7348   -5.3595 C   0  0  0  0  0  0  0  0  0  0  0  0
    3.2011   -3.8946   -5.0578 C   0  0  0  0  0  0  0  0  0  0  0  0
    3.6487   -4.2651   -3.8178 O   0  0  0  0  0  0  0  0  0  0  0  0
    3.3452   -5.6444   -3.5748 C   0  0  0  0  0  0  0  0  0  0  0  0
    3.5720   -6.2680   -4.4516 H   0  0  0  0  0  0  0  0  0  0  0  0
    3.9700   -5.9939   -2.7442 H   0  0  0  0  0  0  0  0  0  0  0  0
    2.2969   -5.7695   -3.2847 H   0  0  0  0  0  0  0  0  0  0  0  0
    4.1811   -3.6208   -6.0288 C   0  0  0  0  0  0  0  0  0  0  0  0
    5.2261   -3.6844   -5.7413 H   0  0  0  0  0  0  0  0  0  0  0  0
    3.8159   -3.2555   -7.3318 C   0  0  0  0  0  0  0  0  0  0  0  0
    4.8706   -3.0365   -8.3412 C   0  0  0  0  0  0  0  0  0  0  0  0
    5.8579   -3.4305   -8.0900 H   0  0  0  0  0  0  0  0  0  0  0  0
    4.7078   -2.4157   -9.5222 C   0  0  0  0  0  0  0  0  0  0  0  0
    3.7486   -1.9936   -9.7943 H   0  0  0  0  0  0  0  0  0  0  0  0
    5.7508   -2.2444  -10.5878 C   0  0  0  0  0  0  0  0  0  0  0  0
    5.4067   -2.7327  -11.5067 H   0  0  0  0  0  0  0  0  0  0  0  0
    5.9008   -1.1791  -10.7927 H   0  0  0  0  0  0  0  0  0  0  0  0
    6.9896   -2.8187  -10.2042 O   0  0  0  0  0  0  0  0  0  0  0  0
    7.5126   -2.9065  -11.0143 H   0  0  0  0  0  0  0  0  0  0  0  0
    2.4512   -3.2022   -7.6528 C   0  0  0  0  0  0  0  0  0  0  0  0
    2.1193   -2.9440   -8.6538 H   0  0  0  0  0  0  0  0  0  0  0  0
    1.4766   -3.4345   -6.6732 C   0  0  0  0  0  0  0  0  0  0  0  0
    0.1626   -3.2932   -7.0440 O   0  0  0  0  0  0  0  0  0  0  0  0
   -0.3435   -4.5390   -7.5159 C   0  0  0  0  0  0  0  0  0  0  0  0
   -0.1980   -5.3586   -6.8046 H   0  0  0  0  0  0  0  0  0  0  0  0
   -1.4247   -4.4356   -7.6734 H   0  0  0  0  0  0  0  0  0  0  0  0
    0.1235   -4.8014   -8.4732 H   0  0  0  0  0  0  0  0  0  0  0  0
   -1.3256   -3.1523   -4.2578 C   0  0  0  0  0  0  0  0  0  0  0  0
   -1.6414   -4.1633   -4.4898 H   0  0  0  0  0  0  0  0  0  0  0  0
   -2.2626   -2.1308   -4.0856 C   0  0  0  0  0  0  0  0  0  0  0  0
   -3.6950   -2.3691   -4.1562 C   0  0  0  0  0  0  0  0  0  0  0  0
   -4.1544   -2.3373   -5.1378 H   0  0  0  0  0  0  0  0  0  0  0  0
   -4.4116   -2.4582   -3.0193 C   0  0  0  0  0  0  0  0  0  0  0  0
   -3.8893   -2.4724   -2.0637 H   0  0  0  0  0  0  0  0  0  0  0  0
   -5.8967   -2.4424   -2.9209 C   0  0  0  0  0  0  0  0  0  0  0  0
   -6.2860   -3.4079   -2.5951 H   0  0  0  0  0  0  0  0  0  0  0  0
   -6.1846   -1.6894   -2.1765 H   0  0  0  0  0  0  0  0  0  0  0  0
   -6.5030   -2.0844   -4.1590 O   0  0  0  0  0  0  0  0  0  0  0  0
   -7.3878   -1.7495   -3.9322 H   0  0  0  0  0  0  0  0  0  0  0  0
   -1.8342   -0.8243   -3.8164 C   0  0  0  0  0  0  0  0  0  0  0  0
   -2.5724   -0.0448   -3.6721 H   0  0  0  0  0  0  0  0  0  0  0  0
   -0.4707   -0.5347   -3.6869 C   0  0  0  0  0  0  0  0  0  0  0  0
   -0.0660    0.7170   -3.3461 O   0  0  0  0  0  0  0  0  0  0  0  0
   -0.5949    1.7511   -4.1781 C   0  0  0  0  0  0  0  0  0  0  0  0
   -0.7611    1.4187   -5.2086 H   0  0  0  0  0  0  0  0  0  0  0  0
   -1.5185    2.1313   -3.7415 H   0  0  0  0  0  0  0  0  0  0  0  0
    0.1274    2.5675   -4.1959 H   0  0  0  0  0  0  0  0  0  0  0  0
    2.6901    0.1832   -1.8114 C   0  0  1  0  0  0  0  0  0  0  0  0
    3.7294    0.1497   -1.4680 H   0  0  0  0  0  0  0  0  0  0  0  0
    2.5406    1.0363   -2.9474 O   0  0  0  0  0  0  0  0  0  0  0  0
    3.4833    1.8474   -3.4951 C   0  0  0  0  0  0  0  0  0  0  0  0
    4.5635    2.4516   -2.8610 C   0  0  0  0  0  0  0  0  0  0  0  0
    4.8797    2.1735   -1.5550 O   0  0  0  0  0  0  0  0  0  0  0  0
    6.1867    1.6068   -1.4600 C   0  0  0  0  0  0  0  0  0  0  0  0
    6.2162    0.6353   -1.9675 H   0  0  0  0  0  0  0  0  0  0  0  0
    6.9668    2.2651   -1.8587 H   0  0  0  0  0  0  0  0  0  0  0  0
    6.4012    1.4406   -0.3997 H   0  0  0  0  0  0  0  0  0  0  0  0
    5.2777    3.4734   -3.5178 C   0  0  0  0  0  0  0  0  0  0  0  0
    6.0483    4.0117   -2.9718 H   0  0  0  0  0  0  0  0  0  0  0  0
    4.9742    3.8633   -4.8334 C   0  0  0  0  0  0  0  0  0  0  0  0
    5.7125    5.0371   -5.4772 C   0  0  1  0  0  0  0  0  0  0  0  0
    6.2433    5.5816   -4.6904 H   0  0  0  0  0  0  0  0  0  0  0  0
    6.6563    4.5465   -6.4553 O   0  0  0  0  0  0  0  0  0  0  0  0
    7.6889    3.8460   -5.8908 C   0  0  0  0  0  0  0  0  0  0  0  0
    7.7458    2.4835   -6.1863 C   0  0  0  0  0  0  0  0  0  0  0  0
    7.0154    2.0491   -6.8639 H   0  0  0  0  0  0  0  0  0  0  0  0
    8.7187    1.6845   -5.5891 C   0  0  0  0  0  0  0  0  0  0  0  0
    8.7373    0.6241   -5.8389 H   0  0  0  0  0  0  0  0  0  0  0  0
    9.6466    2.2249   -4.6916 C   0  0  0  0  0  0  0  0  0  0  0  0
   10.6859    1.4124   -4.0501 C   0  0  0  0  0  0  0  0  0  0  0  0
   11.6393    1.9108   -3.8760 H   0  0  0  0  0  0  0  0  0  0  0  0
   10.5250    0.1355   -3.6721 C   0  0  0  0  0  0  0  0  0  0  0  0
    9.5654   -0.3553   -3.8126 H   0  0  0  0  0  0  0  0  0  0  0  0
   11.5705   -0.7355   -3.0523 C   0  0  0  0  0  0  0  0  0  0  0  0
   11.2560   -1.0367   -2.0462 H   0  0  0  0  0  0  0  0  0  0  0  0
   11.7076   -1.6400   -3.6584 H   0  0  0  0  0  0  0  0  0  0  0  0
   12.8143   -0.0671   -2.9483 O   0  0  0  0  0  0  0  0  0  0  0  0
   13.4494   -0.7136   -2.5978 H   0  0  0  0  0  0  0  0  0  0  0  0
    9.6230    3.6039   -4.4453 C   0  0  0  0  0  0  0  0  0  0  0  0
   10.3384    4.0586   -3.7670 H   0  0  0  0  0  0  0  0  0  0  0  0
    8.6597    4.4138   -5.0650 C   0  0  0  0  0  0  0  0  0  0  0  0
    8.7020    5.7480   -4.7592 O   0  0  0  0  0  0  0  0  0  0  0  0
    9.0473    6.5410   -5.8953 C   0  0  0  0  0  0  0  0  0  0  0  0
    9.0295    6.0031   -6.8555 H   0  0  0  0  0  0  0  0  0  0  0  0
    8.3494    7.3809   -5.9451 H   0  0  0  0  0  0  0  0  0  0  0  0
   10.0538    6.9430   -5.7423 H   0  0  0  0  0  0  0  0  0  0  0  0
    4.7096    6.0753   -6.0998 C   0  0  1  0  0  0  0  0  0  0  0  0
    3.8056    5.5780   -6.4717 H   0  0  0  0  0  0  0  0  0  0  0  0
    4.3675    7.0928   -5.1155 O   0  0  0  0  0  0  0  0  0  0  0  0
    3.3393    6.6844   -4.3057 C   0  0  0  0  0  0  0  0  0  0  0  0
    3.6501    6.4119   -2.9716 C   0  0  0  0  0  0  0  0  0  0  0  0
    4.6615    6.5653   -2.6026 H   0  0  0  0  0  0  0  0  0  0  0  0
    2.6783    5.8598   -2.1319 C   0  0  0  0  0  0  0  0  0  0  0  0
    2.9595    5.5763   -1.1210 H   0  0  0  0  0  0  0  0  0  0  0  0
    1.3773    5.6196   -2.6097 C   0  0  0  0  0  0  0  0  0  0  0  0
    0.3756    4.9413   -1.7879 C   0  0  0  0  0  0  0  0  0  0  0  0
   -0.2633    4.2259   -2.3116 H   0  0  0  0  0  0  0  0  0  0  0  0
    0.1982    5.1696   -0.4760 C   0  0  0  0  0  0  0  0  0  0  0  0
    0.8028    5.9211    0.0251 H   0  0  0  0  0  0  0  0  0  0  0  0
   -0.8039    4.4816    0.4024 C   0  0  0  0  0  0  0  0  0  0  0  0
   -0.3399    4.2274    1.3572 H   0  0  0  0  0  0  0  0  0  0  0  0
   -1.6545    5.1444    0.5896 H   0  0  0  0  0  0  0  0  0  0  0  0
   -1.2796    3.2817   -0.1823 O   0  0  0  0  0  0  0  0  0  0  0  0
   -0.4897    2.7299   -0.3431 H   0  0  0  0  0  0  0  0  0  0  0  0
    1.0607    5.9586   -3.9289 C   0  0  0  0  0  0  0  0  0  0  0  0
    0.0606    5.7943   -4.3176 H   0  0  0  0  0  0  0  0  0  0  0  0
    2.0277    6.5244   -4.7599 C   0  0  0  0  0  0  0  0  0  0  0  0
    1.6640    6.8437   -6.0430 O   0  0  0  0  0  0  0  0  0  0  0  0
    1.5471    8.2629   -6.1768 C   0  0  0  0  0  0  0  0  0  0  0  0
    1.2311    8.4716   -7.2028 H   0  0  0  0  0  0  0  0  0  0  0  0
    0.7853    8.6584   -5.4966 H   0  0  0  0  0  0  0  0  0  0  0  0
    2.5054    8.7687   -6.0133 H   0  0  0  0  0  0  0  0  0  0  0  0
    5.2844    6.8250   -7.3078 C   0  0  0  0  0  0  0  0  0  0  0  0
    4.6721    7.6974   -7.5427 H   0  0  0  0  0  0  0  0  0  0  0  0
    6.2959    7.1840   -7.1029 H   0  0  0  0  0  0  0  0  0  0  0  0
    5.3024    5.9969   -8.4656 O   0  0  0  0  0  0  0  0  0  0  0  0
    5.7958    6.4648   -9.1576 H   0  0  0  0  0  0  0  0  0  0  0  0
    3.9886    3.1513   -5.5138 C   0  0  0  0  0  0  0  0  0  0  0  0
    3.7526    3.3717   -6.5508 H   0  0  0  0  0  0  0  0  0  0  0  0
    3.2506    2.1748   -4.8472 C   0  0  0  0  0  0  0  0  0  0  0  0
    2.2161    1.5828   -5.5331 O   0  0  0  0  0  0  0  0  0  0  0  0
    2.7021    0.5150   -6.3432 C   0  0  0  0  0  0  0  0  0  0  0  0
    3.6620    0.0986   -6.0027 H   0  0  0  0  0  0  0  0  0  0  0  0
    1.9539   -0.2857   -6.3176 H   0  0  0  0  0  0  0  0  0  0  0  0
    2.7938    0.8619   -7.3839 H   0  0  0  0  0  0  0  0  0  0  0  0
    1.8381    0.7497   -0.6597 C   0  0  0  0  0  0  0  0  0  0  0  0
    0.7868    0.8171   -0.9488 H   0  0  0  0  0  0  0  0  0  0  0  0
    1.9262    0.1353    0.2440 H   0  0  0  0  0  0  0  0  0  0  0  0
    2.2186    2.0761   -0.2755 O   0  0  0  0  0  0  0  0  0  0  0  0
    2.4779    2.5418   -1.0968 H   0  0  0  0  0  0  0  0  0  0  0  0
    2.2449   -3.4320   -0.8798 C   0  0  0  0  0  0  0  0  0  0  0  0
    3.2663   -3.6249   -1.2181 H   0  0  0  0  0  0  0  0  0  0  0  0
    1.5922   -4.4241   -0.1374 C   0  0  0  0  0  0  0  0  0  0  0  0
    2.3204   -5.5623    0.1114 O   0  0  0  0  0  0  0  0  0  0  0  0
    2.4497   -5.7954    1.5154 C   0  0  0  0  0  0  0  0  0  0  0  0
    3.4055   -6.3041    1.6844 H   0  0  0  0  0  0  0  0  0  0  0  0
    2.4483   -4.8733    2.1092 H   0  0  0  0  0  0  0  0  0  0  0  0
    1.6536   -6.4659    1.8569 H   0  0  0  0  0  0  0  0  0  0  0  0
   -0.4066   -7.6208    0.0580 C   0  0  0  0  0  0  0  0  0  0  0  0
    0.6647   -7.6590   -0.1646 H   0  0  0  0  0  0  0  0  0  0  0  0
   -0.4921   -7.8457    1.1262 H   0  0  0  0  0  0  0  0  0  0  0  0
   -1.0341   -8.6663   -0.6778 O   0  0  0  0  0  0  0  0  0  0  0  0
   -1.9716   -8.6758   -0.3826 H   0  0  0  0  0  0  0  0  0  0  0  0
   -2.5590   -6.7452   -2.7942 C   0  0  0  0  0  0  0  0  0  0  0  0
   -1.5036   -6.9971   -2.7953 H   0  0  0  0  0  0  0  0  0  0  0  0
   -3.2342   -6.8251   -4.0247 C   0  0  0  0  0  0  0  0  0  0  0  0
   -2.4017   -7.1658   -5.0569 O   0  0  0  0  0  0  0  0  0  0  0  0
   -2.9762   -7.4893   -6.3136 C   0  0  0  0  0  0  0  0  0  0  0  0
   -3.7203   -8.2840   -6.2174 H   0  0  0  0  0  0  0  0  0  0  0  0
   -3.3803   -6.5992   -6.7985 H   0  0  0  0  0  0  0  0  0  0  0  0
   -2.1726   -7.8715   -6.9554 H   0  0  0  0  0  0  0  0  0  0  0  0
  1  2  1  0
  2  3  1  0
  3  4  2  0
  3181  1  0
  4  5  1  0
  4 10  1  0
  5  6  1  0
  6  7  1  0
  6  8  1  0
  6  9  1  0
 10 11  1  0
 10 12  2  0
 12 13  1  0
 12179  1  0
 13 14  1  1
 13 15  1  0
 13 17  1  0
 15 16  1  0
 17 18  1  6
 17 19  1  0
 17174  1  0
 19 20  1  0
 20 21  2  0
 20168  1  0
 21 22  1  0
 21 27  1  0
 22 23  1  0
 23 24  1  0
 23 25  1  0
 23 26  1  0
 27 28  1  0
 27 29  2  0
 29 30  1  0
 29166  1  0
 30 31  1  6
 30 32  1  0
 30 83  1  0
 32 33  1  0
 33 34  1  0
 33 77  2  0
 34 35  1  0
 34 63  2  0
 35 36  1  0
 36 37  2  0
 36 57  1  0
 37 38  1  0
 37 43  1  0
 38 39  1  0
 39 40  1  0
 39 41  1  0
 39 42  1  0
 43 44  1  0
 43 45  2  0
 45 46  1  0
 45 55  1  0
 46 47  1  0
 46 48  2  0
 48 49  1  0
 48 50  1  0
 50 51  1  0
 50 52  1  0
 50 53  1  0
 53 54  1  0
 55 56  1  0
 55 57  2  0
 57 58  1  0
 58 59  1  0
 59 60  1  0
 59 61  1  0
 59 62  1  0
 63 64  1  0
 63 65  1  0
 65 66  1  0
 65 75  2  0
 66 67  1  0
 66 68  2  0
 68 69  1  0
 68 70  1  0
 70 71  1  0
 70 72  1  0
 70 73  1  0
 73 74  1  0
 75 76  1  0
 75 77  1  0
 77 78  1  0
 78 79  1  0
 79 80  1  0
 79 81  1  0
 79 82  1  0
 83 84  1  1
 83 85  1  0
 83161  1  0
 85 86  1  0
 86 87  2  0
 86155  1  0
 87 88  1  0
 87 93  1  0
 88 89  1  0
 89 90  1  0
 89 91  1  0
 89 92  1  0
 93 94  1  0
 93 95  2  0
 95 96  1  0
 95153  1  0
 96 97  1  1
 96 98  1  0
 96122  1  0
 98 99  1  0
 99100  2  0
 99116  1  0
100101  1  0
100102  1  0
102103  1  0
102104  2  0
104105  1  0
104114  1  0
105106  1  0
105107  2  0
107108  1  0
107109  1  0
109110  1  0
109111  1  0
109112  1  0
112113  1  0
114115  1  0
114116  2  0
116117  1  0
117118  1  0
118119  1  0
118120  1  0
118121  1  0
122123  1  6
122124  1  0
122148  1  0
124125  1  0
125126  2  0
125142  1  0
126127  1  0
126128  1  0
128129  1  0
128130  2  0
130131  1  0
130140  1  0
131132  1  0
131133  2  0
133134  1  0
133135  1  0
135136  1  0
135137  1  0
135138  1  0
138139  1  0
140141  1  0
140142  2  0
142143  1  0
143144  1  0
144145  1  0
144146  1  0
144147  1  0
148149  1  0
148150  1  0
148151  1  0
151152  1  0
153154  1  0
153155  2  0
155156  1  0
156157  1  0
157158  1  0
157159  1  0
157160  1  0
161162  1  0
161163  1  0
161164  1  0
164165  1  0
166167  1  0
166168  2  0
168169  1  0
169170  1  0
170171  1  0
170172  1  0
170173  1  0
174175  1  0
174176  1  0
174177  1  0
177178  1  0
179180  1  0
179181  2  0
181182  1  0
182183  1  0
183184  1  0
183185  1  0
183186  1  0
M  END
