
     RDKit          3D

233241  0  0  1  0  0  0  0  0999 V2000
    0.9718   -0.2997    0.0149 H   0  0  0  0  0  0  0  0  0  0  0  0
    0.5818   -1.1646    0.2558 O   0  0  0  0  0  0  0  0  0  0  0  0
    1.6266   -2.0370    0.2618 C   0  0  0  0  0  0  0  0  0  0  0  0
    2.9310   -1.5903   -0.0108 C   0  0  0  0  0  0  0  0  0  0  0  0
    3.2202   -0.3143   -0.4231 O   0  0  0  0  0  0  0  0  0  0  0  0
    3.0519    0.7719    0.4279 C   0  0  0  0  0  0  0  0  0  0  0  0
    2.2180    1.8083   -0.0302 C   0  0  0  0  0  0  0  0  0  0  0  0
    1.3860    1.5248   -1.0897 O   0  0  0  0  0  0  0  0  0  0  0  0
    0.0350    1.9621   -0.8733 C   0  0  0  0  0  0  0  0  0  0  0  0
   -0.0680    3.0254   -1.1157 H   0  0  0  0  0  0  0  0  0  0  0  0
   -0.6100    1.3870   -1.5379 H   0  0  0  0  0  0  0  0  0  0  0  0
   -0.2907    1.7768    0.1598 H   0  0  0  0  0  0  0  0  0  0  0  0
    2.2811    3.0673    0.5523 C   0  0  0  0  0  0  0  0  0  0  0  0
    1.6964    3.8932    0.1422 H   0  0  0  0  0  0  0  0  0  0  0  0
    3.1306    3.3050    1.6340 C   0  0  0  0  0  0  0  0  0  0  0  0
    3.2881    4.6506    2.1969 C   0  0  0  0  0  0  0  0  0  0  0  0
    3.2176    4.7372    3.2738 H   0  0  0  0  0  0  0  0  0  0  0  0
    3.5870    5.7351    1.4624 C   0  0  0  0  0  0  0  0  0  0  0  0
    3.6682    5.6437    0.3653 H   0  0  0  0  0  0  0  0  0  0  0  0
    3.8529    7.1198    1.9678 C   0  0  0  0  0  0  0  0  0  0  0  0
    4.8110    7.4637    1.5827 H   0  0  0  0  0  0  0  0  0  0  0  0
    3.0697    7.8051    1.6399 H   0  0  0  0  0  0  0  0  0  0  0  0
    3.9220    7.1382    3.3813 O   0  0  0  0  0  0  0  0  0  0  0  0
    4.1480    8.0450    3.6500 H   0  0  0  0  0  0  0  0  0  0  0  0
    3.8627    2.2456    2.1749 C   0  0  0  0  0  0  0  0  0  0  0  0
    4.5311    2.4191    3.0047 H   0  0  0  0  0  0  0  0  0  0  0  0
    3.8124    0.9569    1.5757 C   0  0  0  0  0  0  0  0  0  0  0  0
    4.5814   -0.0727    2.0321 O   0  0  0  0  0  0  0  0  0  0  0  0
    4.5369   -0.2313    3.4669 C   0  0  0  0  0  0  0  0  0  0  0  0
    4.6871   -1.2843    3.6983 H   0  0  0  0  0  0  0  0  0  0  0  0
    5.3605    0.3470    3.9115 H   0  0  0  0  0  0  0  0  0  0  0  0
    3.5809    0.0902    3.8923 H   0  0  0  0  0  0  0  0  0  0  0  0
    3.9629   -2.5180   -0.1768 C   0  0  0  0  0  0  0  0  0  0  0  0
    4.9388   -2.1818   -0.4940 H   0  0  0  0  0  0  0  0  0  0  0  0
    3.7121   -3.8918   -0.0730 C   0  0  0  0  0  0  0  0  0  0  0  0
    4.6752   -4.9647   -0.6541 C   0  0  1  0  0  0  0  0  0  0  0  0
    5.6106   -4.4521   -0.9476 H   0  0  0  0  0  0  0  0  0  0  0  0
    4.9055   -5.9398    0.3907 O   0  0  0  0  0  0  0  0  0  0  0  0
    6.2197   -6.1881    0.7366 C   0  0  0  0  0  0  0  0  0  0  0  0
    6.6184   -5.9935    2.0697 C   0  0  0  0  0  0  0  0  0  0  0  0
    5.8303   -5.2577    2.9020 O   0  0  0  0  0  0  0  0  0  0  0  0
    5.2686   -5.7707    4.0495 C   0  0  0  0  0  0  0  0  0  0  0  0
    4.9186   -4.8031    5.0074 C   0  0  0  0  0  0  0  0  0  0  0  0
    5.4473   -3.5234    4.9622 O   0  0  0  0  0  0  0  0  0  0  0  0
    6.8186   -3.5795    5.3694 C   0  0  0  0  0  0  0  0  0  0  0  0
    7.3246   -4.5190    5.1257 H   0  0  0  0  0  0  0  0  0  0  0  0
    6.8670   -3.4229    6.4477 H   0  0  0  0  0  0  0  0  0  0  0  0
    7.3553   -2.7589    4.8954 H   0  0  0  0  0  0  0  0  0  0  0  0
    3.9983   -5.0833    6.0209 C   0  0  0  0  0  0  0  0  0  0  0  0
    3.7065   -4.2805    6.7017 H   0  0  0  0  0  0  0  0  0  0  0  0
    3.4033   -6.3532    6.1229 C   0  0  0  0  0  0  0  0  0  0  0  0
    2.1374   -6.5112    6.9872 C   0  0  1  0  0  0  0  0  0  0  0  0
    2.0140   -5.6224    7.5977 H   0  0  0  0  0  0  0  0  0  0  0  0
    0.9926   -6.6631    6.0905 O   0  0  0  0  0  0  0  0  0  0  0  0
    0.5455   -5.4436    5.6288 C   0  0  0  0  0  0  0  0  0  0  0  0
    0.9416   -4.9965    4.3683 C   0  0  0  0  0  0  0  0  0  0  0  0
    1.7130   -5.7050    3.5053 O   0  0  0  0  0  0  0  0  0  0  0  0
    1.1106   -6.9353    3.0998 C   0  0  0  0  0  0  0  0  0  0  0  0
    0.0479   -6.8290    2.8753 H   0  0  0  0  0  0  0  0  0  0  0  0
    1.6205   -7.2760    2.1907 H   0  0  0  0  0  0  0  0  0  0  0  0
    1.2585   -7.7236    3.8533 H   0  0  0  0  0  0  0  0  0  0  0  0
    0.6190   -3.7027    3.9770 C   0  0  0  0  0  0  0  0  0  0  0  0
    1.0314   -3.3559    3.0289 H   0  0  0  0  0  0  0  0  0  0  0  0
   -0.1696   -2.8591    4.7697 C   0  0  0  0  0  0  0  0  0  0  0  0
   -0.5357   -1.5047    4.3389 C   0  0  0  0  0  0  0  0  0  0  0  0
   -1.4421   -1.0786    4.7913 H   0  0  0  0  0  0  0  0  0  0  0  0
    0.1234   -0.7743    3.4199 C   0  0  0  0  0  0  0  0  0  0  0  0
    1.0008   -1.1864    2.9462 H   0  0  0  0  0  0  0  0  0  0  0  0
   -0.2493    0.5693    2.8708 C   0  0  0  0  0  0  0  0  0  0  0  0
    0.6339    1.2127    2.8863 H   0  0  0  0  0  0  0  0  0  0  0  0
   -0.5912    0.4822    1.8365 H   0  0  0  0  0  0  0  0  0  0  0  0
   -1.3005    1.1496    3.6268 O   0  0  0  0  0  0  0  0  0  0  0  0
   -1.3751    2.0658    3.3024 H   0  0  0  0  0  0  0  0  0  0  0  0
   -0.6338   -3.3468    5.9896 C   0  0  0  0  0  0  0  0  0  0  0  0
   -1.2428   -2.7406    6.6416 H   0  0  0  0  0  0  0  0  0  0  0  0
   -0.2861   -4.6500    6.4065 C   0  0  0  0  0  0  0  0  0  0  0  0
   -0.7510   -5.0786    7.6180 O   0  0  0  0  0  0  0  0  0  0  0  0
   -1.9973   -5.7645    7.4542 C   0  0  0  0  0  0  0  0  0  0  0  0
   -2.3762   -5.9933    8.4576 H   0  0  0  0  0  0  0  0  0  0  0  0
   -2.7302   -5.1266    6.9382 H   0  0  0  0  0  0  0  0  0  0  0  0
   -1.8556   -6.6986    6.8966 H   0  0  0  0  0  0  0  0  0  0  0  0
    2.1466   -7.7730    7.9186 C   0  0  1  0  0  0  0  0  0  0  0  0
    2.4376   -8.6536    7.3374 H   0  0  0  0  0  0  0  0  0  0  0  0
    2.9954   -7.7942    9.1026 O   0  0  0  0  0  0  0  0  0  0  0  0
    3.8669   -6.7680    9.2561 C   0  0  0  0  0  0  0  0  0  0  0  0
    5.2248   -6.9598    8.9478 C   0  0  0  0  0  0  0  0  0  0  0  0
    5.7996   -8.1260    8.5088 O   0  0  0  0  0  0  0  0  0  0  0  0
    5.2646   -9.2984    9.1378 C   0  0  0  0  0  0  0  0  0  0  0  0
    6.0749  -10.0443    9.1713 H   0  0  0  0  0  0  0  0  0  0  0  0
    4.9679   -9.1214   10.1676 H   0  0  0  0  0  0  0  0  0  0  0  0
    4.4742   -9.7335    8.5154 H   0  0  0  0  0  0  0  0  0  0  0  0
    6.1057   -5.8865    9.0455 C   0  0  0  0  0  0  0  0  0  0  0  0
    7.1535   -6.0345    8.7740 H   0  0  0  0  0  0  0  0  0  0  0  0
    5.6652   -4.6534    9.5442 C   0  0  0  0  0  0  0  0  0  0  0  0
    6.6460   -3.5760    9.6273 C   0  0  0  0  0  0  0  0  0  0  0  0
    7.6074   -3.8243   10.0666 H   0  0  0  0  0  0  0  0  0  0  0  0
    6.4335   -2.3399    9.1496 C   0  0  0  0  0  0  0  0  0  0  0  0
    5.4872   -2.0996    8.6612 H   0  0  0  0  0  0  0  0  0  0  0  0
    7.4391   -1.2405    9.1888 C   0  0  0  0  0  0  0  0  0  0  0  0
    8.3083   -1.4977    8.5747 H   0  0  0  0  0  0  0  0  0  0  0  0
    7.0131   -0.3024    8.8225 H   0  0  0  0  0  0  0  0  0  0  0  0
    7.8595   -1.0442   10.5291 O   0  0  0  0  0  0  0  0  0  0  0  0
    8.5886   -0.3936   10.5103 H   0  0  0  0  0  0  0  0  0  0  0  0
    4.3376   -4.5036    9.9630 C   0  0  0  0  0  0  0  0  0  0  0  0
    4.0288   -3.5513   10.3828 H   0  0  0  0  0  0  0  0  0  0  0  0
    3.4395   -5.5482    9.8260 C   0  0  0  0  0  0  0  0  0  0  0  0
    2.1032   -5.5002   10.1580 O   0  0  0  0  0  0  0  0  0  0  0  0
    1.6255   -4.3490   10.8278 C   0  0  0  0  0  0  0  0  0  0  0  0
    0.5621   -4.4927   11.0116 H   0  0  0  0  0  0  0  0  0  0  0  0
    2.1164   -4.2432   11.7990 H   0  0  0  0  0  0  0  0  0  0  0  0
    1.7294   -3.4328   10.2373 H   0  0  0  0  0  0  0  0  0  0  0  0
    0.7145   -8.0638    8.4770 C   0  0  0  0  0  0  0  0  0  0  0  0
    0.4847   -7.4143    9.3208 H   0  0  0  0  0  0  0  0  0  0  0  0
   -0.0514   -7.9805    7.6985 H   0  0  0  0  0  0  0  0  0  0  0  0
    0.6190   -9.4268    8.9408 O   0  0  0  0  0  0  0  0  0  0  0  0
   -0.0993   -9.4430    9.5768 H   0  0  0  0  0  0  0  0  0  0  0  0
    3.8897   -7.3702    5.2703 C   0  0  0  0  0  0  0  0  0  0  0  0
    3.4759   -8.3718    5.3340 H   0  0  0  0  0  0  0  0  0  0  0  0
    4.8433   -7.0937    4.2737 C   0  0  0  0  0  0  0  0  0  0  0  0
    5.2900   -8.1372    3.4966 O   0  0  0  0  0  0  0  0  0  0  0  0
    6.2803   -8.8616    4.2481 C   0  0  0  0  0  0  0  0  0  0  0  0
    6.9830   -8.1781    4.7514 H   0  0  0  0  0  0  0  0  0  0  0  0
    5.8064   -9.5289    4.9611 H   0  0  0  0  0  0  0  0  0  0  0  0
    6.8548   -9.4769    3.5415 H   0  0  0  0  0  0  0  0  0  0  0  0
    7.9336   -6.2963    2.4813 C   0  0  0  0  0  0  0  0  0  0  0  0
    8.2374   -6.0928    3.4979 H   0  0  0  0  0  0  0  0  0  0  0  0
    8.8499   -6.8142    1.5684 C   0  0  0  0  0  0  0  0  0  0  0  0
   10.2767   -7.0350    1.8693 C   0  0  0  0  0  0  0  0  0  0  0  0
   10.7645   -7.8557    1.3404 H   0  0  0  0  0  0  0  0  0  0  0  0
   11.0250   -6.2363    2.6390 C   0  0  0  0  0  0  0  0  0  0  0  0
   10.5662   -5.4187    3.2010 H   0  0  0  0  0  0  0  0  0  0  0  0
   12.5005   -6.3527    2.8028 C   0  0  0  0  0  0  0  0  0  0  0  0
   12.9530   -5.3500    2.8976 H   0  0  0  0  0  0  0  0  0  0  0  0
   12.7675   -6.9530    3.6843 H   0  0  0  0  0  0  0  0  0  0  0  0
   13.0697   -6.9727    1.6344 O   0  0  0  0  0  0  0  0  0  0  0  0
   14.0162   -6.7844    1.6721 H   0  0  0  0  0  0  0  0  0  0  0  0
    8.4191   -7.0914    0.2567 C   0  0  0  0  0  0  0  0  0  0  0  0
    9.1454   -7.5139   -0.4333 H   0  0  0  0  0  0  0  0  0  0  0  0
    7.1350   -6.7650   -0.1732 C   0  0  0  0  0  0  0  0  0  0  0  0
    6.7333   -6.9281   -1.4710 O   0  0  0  0  0  0  0  0  0  0  0  0
    7.5614   -7.7109   -2.3209 C   0  0  0  0  0  0  0  0  0  0  0  0
    7.0697   -7.8048   -3.2875 H   0  0  0  0  0  0  0  0  0  0  0  0
    8.5401   -7.2483   -2.5152 H   0  0  0  0  0  0  0  0  0  0  0  0
    7.6734   -8.7284   -1.9355 H   0  0  0  0  0  0  0  0  0  0  0  0
    3.9577   -5.5584   -1.9506 C   0  0  1  0  0  0  0  0  0  0  0  0
    2.9336   -5.1441   -2.0179 H   0  0  0  0  0  0  0  0  0  0  0  0
    4.6773   -5.1291   -3.1485 O   0  0  0  0  0  0  0  0  0  0  0  0
    3.9466   -4.4495   -4.1049 C   0  0  0  0  0  0  0  0  0  0  0  0
    4.3067   -3.1289   -4.4344 C   0  0  0  0  0  0  0  0  0  0  0  0
    5.1097   -2.4235   -3.5809 O   0  0  0  0  0  0  0  0  0  0  0  0
    6.3967   -2.0035   -4.0386 C   0  0  0  0  0  0  0  0  0  0  0  0
    7.3840   -2.9724   -3.9709 C   0  0  0  0  0  0  0  0  0  0  0  0
    7.5020   -4.0460   -4.7984 O   0  0  0  0  0  0  0  0  0  0  0  0
    7.0726   -4.0614   -6.1051 C   0  0  0  0  0  0  0  0  0  0  0  0
    7.0108   -3.0041   -7.0372 C   0  0  0  0  0  0  0  0  0  0  0  0
    7.3789   -1.7216   -6.6654 O   0  0  0  0  0  0  0  0  0  0  0  0
    6.6506   -0.6599   -7.2954 C   0  0  0  0  0  0  0  0  0  0  0  0
    7.2540   -0.2539   -8.1207 H   0  0  0  0  0  0  0  0  0  0  0  0
    6.4623    0.1278   -6.5598 H   0  0  0  0  0  0  0  0  0  0  0  0
    5.6550   -0.9713   -7.6566 H   0  0  0  0  0  0  0  0  0  0  0  0
    6.6454   -3.2605   -8.3671 C   0  0  0  0  0  0  0  0  0  0  0  0
    6.6229   -2.4622   -9.0997 H   0  0  0  0  0  0  0  0  0  0  0  0
    6.3015   -4.5483   -8.7842 C   0  0  0  0  0  0  0  0  0  0  0  0
    5.9563   -4.8173  -10.1929 C   0  0  0  0  0  0  0  0  0  0  0  0
    6.7852   -5.0693  -10.8328 H   0  0  0  0  0  0  0  0  0  0  0  0
    4.7004   -4.9371  -10.6246 C   0  0  0  0  0  0  0  0  0  0  0  0
    3.8653   -4.7197   -9.9399 H   0  0  0  0  0  0  0  0  0  0  0  0
    4.3368   -5.3827  -11.9996 C   0  0  0  0  0  0  0  0  0  0  0  0
    3.7181   -4.6330  -12.5066 H   0  0  0  0  0  0  0  0  0  0  0  0
    5.2286   -5.5644  -12.6065 H   0  0  0  0  0  0  0  0  0  0  0  0
    3.6124   -6.6050  -11.9308 O   0  0  0  0  0  0  0  0  0  0  0  0
    3.4923   -6.8378  -10.9923 H   0  0  0  0  0  0  0  0  0  0  0  0
    6.4029   -5.6031   -7.9087 C   0  0  0  0  0  0  0  0  0  0  0  0
    6.2104   -6.6083   -8.2596 H   0  0  0  0  0  0  0  0  0  0  0  0
    6.7273   -5.3706   -6.5573 C   0  0  0  0  0  0  0  0  0  0  0  0
    6.7743   -6.3938   -5.6458 O   0  0  0  0  0  0  0  0  0  0  0  0
    5.7648   -7.3817   -5.8262 C   0  0  0  0  0  0  0  0  0  0  0  0
    6.1664   -8.2160   -6.4072 H   0  0  0  0  0  0  0  0  0  0  0  0
    5.4608   -7.7460   -4.8424 H   0  0  0  0  0  0  0  0  0  0  0  0
    4.8633   -6.9850   -6.2925 H   0  0  0  0  0  0  0  0  0  0  0  0
    8.3052   -2.8992   -2.9356 C   0  0  0  0  0  0  0  0  0  0  0  0
    9.0190   -3.7020   -2.7940 H   0  0  0  0  0  0  0  0  0  0  0  0
    8.3051   -1.7953   -2.0534 C   0  0  0  0  0  0  0  0  0  0  0  0
    8.7596   -2.0775   -0.6787 C   0  0  0  0  0  0  0  0  0  0  0  0
    8.8915   -3.1393   -0.4544 H   0  0  0  0  0  0  0  0  0  0  0  0
    8.5554   -1.2166    0.3559 C   0  0  0  0  0  0  0  0  0  0  0  0
    8.3175   -0.1769    0.1691 H   0  0  0  0  0  0  0  0  0  0  0  0
    8.1415   -1.6585    1.7280 C   0  0  0  0  0  0  0  0  0  0  0  0
    8.9559   -1.7331    2.4582 H   0  0  0  0  0  0  0  0  0  0  0  0
    7.4166   -0.9202    2.0944 H   0  0  0  0  0  0  0  0  0  0  0  0
    7.4067   -2.8560    1.6508 O   0  0  0  0  0  0  0  0  0  0  0  0
    8.0636   -3.5777    1.7744 H   0  0  0  0  0  0  0  0  0  0  0  0
    7.5950   -0.6636   -2.4158 C   0  0  0  0  0  0  0  0  0  0  0  0
    7.6318    0.2765   -1.8587 H   0  0  0  0  0  0  0  0  0  0  0  0
    6.6858   -0.7564   -3.4741 C   0  0  0  0  0  0  0  0  0  0  0  0
    6.0806    0.3168   -4.0593 O   0  0  0  0  0  0  0  0  0  0  0  0
    5.3468    1.1444   -3.1556 C   0  0  0  0  0  0  0  0  0  0  0  0
    4.7635    1.8373   -3.7710 H   0  0  0  0  0  0  0  0  0  0  0  0
    4.6334    0.5523   -2.5675 H   0  0  0  0  0  0  0  0  0  0  0  0
    6.0084    1.7215   -2.5120 H   0  0  0  0  0  0  0  0  0  0  0  0
    3.6791   -2.4260   -5.4906 C   0  0  0  0  0  0  0  0  0  0  0  0
    3.9610   -1.3949   -5.6716 H   0  0  0  0  0  0  0  0  0  0  0  0
    2.7218   -3.0635   -6.2684 C   0  0  0  0  0  0  0  0  0  0  0  0
    2.0080   -2.4069   -7.3624 C   0  0  0  0  0  0  0  0  0  0  0  0
    0.9289   -2.2865   -7.2300 H   0  0  0  0  0  0  0  0  0  0  0  0
    2.5782   -2.0489   -8.5177 C   0  0  0  0  0  0  0  0  0  0  0  0
    3.6490   -2.1834   -8.6461 H   0  0  0  0  0  0  0  0  0  0  0  0
    1.8536   -1.5016   -9.7255 C   0  0  0  0  0  0  0  0  0  0  0  0
    2.1005   -0.4426   -9.8657 H   0  0  0  0  0  0  0  0  0  0  0  0
    2.1441   -2.0590  -10.6186 H   0  0  0  0  0  0  0  0  0  0  0  0
    0.4467   -1.6494   -9.5566 O   0  0  0  0  0  0  0  0  0  0  0  0
    0.0048   -1.3715  -10.3871 H   0  0  0  0  0  0  0  0  0  0  0  0
    2.3799   -4.3706   -5.9699 C   0  0  0  0  0  0  0  0  0  0  0  0
    1.6471   -4.9104   -6.5837 H   0  0  0  0  0  0  0  0  0  0  0  0
    2.9551   -5.0524   -4.8971 C   0  0  0  0  0  0  0  0  0  0  0  0
    2.5940   -6.3711   -4.6831 O   0  0  0  0  0  0  0  0  0  0  0  0
    1.2290   -6.4564   -4.2532 C   0  0  0  0  0  0  0  0  0  0  0  0
    0.9943   -7.5226   -4.1342 H   0  0  0  0  0  0  0  0  0  0  0  0
    1.0807   -5.9720   -3.2809 H   0  0  0  0  0  0  0  0  0  0  0  0
    0.5217   -6.0419   -4.9919 H   0  0  0  0  0  0  0  0  0  0  0  0
    3.7766   -7.0901   -1.9075 C   0  0  0  0  0  0  0  0  0  0  0  0
    3.1673   -7.4230   -2.7370 H   0  0  0  0  0  0  0  0  0  0  0  0
    4.6985   -7.6483   -2.0393 H   0  0  0  0  0  0  0  0  0  0  0  0
    3.1219   -7.5651   -0.7167 O   0  0  0  0  0  0  0  0  0  0  0  0
    3.5932   -7.1533    0.0175 H   0  0  0  0  0  0  0  0  0  0  0  0
    2.4383   -4.3081    0.3584 C   0  0  0  0  0  0  0  0  0  0  0  0
    2.2212   -5.3686    0.4880 H   0  0  0  0  0  0  0  0  0  0  0  0
    1.3945   -3.3971    0.4704 C   0  0  0  0  0  0  0  0  0  0  0  0
    0.2059   -4.0358    0.7450 O   0  0  0  0  0  0  0  0  0  0  0  0
   -0.9984   -3.3219    0.5374 C   0  0  0  0  0  0  0  0  0  0  0  0
   -1.1390   -2.5480    1.2917 H   0  0  0  0  0  0  0  0  0  0  0  0
   -1.0497   -2.9065   -0.4716 H   0  0  0  0  0  0  0  0  0  0  0  0
   -1.8208   -4.0425    0.6613 H   0  0  0  0  0  0  0  0  0  0  0  0
  1  2  1  0
  2  3  1  0
  3  4  2  0
  3228  1  0
  4  5  1  0
  4 33  1  0
  5  6  1  0
  6  7  2  0
  6 27  1  0
  7  8  1  0
  7 13  1  0
  8  9  1  0
  9 10  1  0
  9 11  1  0
  9 12  1  0
 13 14  1  0
 13 15  2  0
 15 16  1  0
 15 25  1  0
 16 17  1  0
 16 18  2  0
 18 19  1  0
 18 20  1  0
 20 21  1  0
 20 22  1  0
 20 23  1  0
 23 24  1  0
 25 26  1  0
 25 27  2  0
 27 28  1  0
 28 29  1  0
 29 30  1  0
 29 31  1  0
 29 32  1  0
 33 34  1  0
 33 35  2  0
 35 36  1  0
 35226  1  0
 36 37  1  6
 36 38  1  0
 36145  1  0
 38 39  1  0
 39 40  1  0
 39139  2  0
 40 41  1  0
 40125  2  0
 41 42  1  0
 42 43  2  0
 42119  1  0
 43 44  1  0
 43 49  1  0
 44 45  1  0
 45 46  1  0
 45 47  1  0
 45 48  1  0
 49 50  1  0
 49 51  2  0
 51 52  1  0
 51117  1  0
 52 53  1  1
 52 54  1  0
 52 82  1  0
 54 55  1  0
 55 56  2  0
 55 76  1  0
 56 57  1  0
 56 62  1  0
 57 58  1  0
 58 59  1  0
 58 60  1  0
 58 61  1  0
 62 63  1  0
 62 64  2  0
 64 65  1  0
 64 74  1  0
 65 66  1  0
 65 67  2  0
 67 68  1  0
 67 69  1  0
 69 70  1  0
 69 71  1  0
 69 72  1  0
 72 73  1  0
 74 75  1  0
 74 76  2  0
 76 77  1  0
 77 78  1  0
 78 79  1  0
 78 80  1  0
 78 81  1  0
 82 83  1  6
 82 84  1  0
 82112  1  0
 84 85  1  0
 85 86  2  0
 85106  1  0
 86 87  1  0
 86 92  1  0
 87 88  1  0
 88 89  1  0
 88 90  1  0
 88 91  1  0
 92 93  1  0
 92 94  2  0
 94 95  1  0
 94104  1  0
 95 96  1  0
 95 97  2  0
 97 98  1  0
 97 99  1  0
 99100  1  0
 99101  1  0
 99102  1  0
102103  1  0
104105  1  0
104106  2  0
106107  1  0
107108  1  0
108109  1  0
108110  1  0
108111  1  0
112113  1  0
112114  1  0
112115  1  0
115116  1  0
117118  1  0
117119  2  0
119120  1  0
120121  1  0
121122  1  0
121123  1  0
121124  1  0
125126  1  0
125127  1  0
127128  1  0
127137  2  0
128129  1  0
128130  2  0
130131  1  0
130132  1  0
132133  1  0
132134  1  0
132135  1  0
135136  1  0
137138  1  0
137139  1  0
139140  1  0
140141  1  0
141142  1  0
141143  1  0
141144  1  0
145146  1  6
145147  1  0
145221  1  0
147148  1  0
148149  1  0
148215  2  0
149150  1  0
149201  2  0
150151  1  0
151152  1  0
151195  2  0
152153  1  0
152181  2  0
153154  1  0
154155  2  0
154175  1  0
155156  1  0
155161  1  0
156157  1  0
157158  1  0
157159  1  0
157160  1  0
161162  1  0
161163  2  0
163164  1  0
163173  1  0
164165  1  0
164166  2  0
166167  1  0
166168  1  0
168169  1  0
168170  1  0
168171  1  0
171172  1  0
173174  1  0
173175  2  0
175176  1  0
176177  1  0
177178  1  0
177179  1  0
177180  1  0
181182  1  0
181183  1  0
183184  1  0
183193  2  0
184185  1  0
184186  2  0
186187  1  0
186188  1  0
188189  1  0
188190  1  0
188191  1  0
191192  1  0
193194  1  0
193195  1  0
195196  1  0
196197  1  0
197198  1  0
197199  1  0
197200  1  0
201202  1  0
201203  1  0
203204  1  0
203213  2  0
204205  1  0
204206  2  0
206207  1  0
206208  1  0
208209  1  0
208210  1  0
208211  1  0
211212  1  0
213214  1  0
213215  1  0
215216  1  0
216217  1  0
217218  1  0
217219  1  0
217220  1  0
221222  1  0
221223  1  0
221224  1  0
224225  1  0
226227  1  0
226228  2  0
228229  1  0
229230  1  0
230231  1  0
230232  1  0
230233  1  0
M  END
