
 OpenBabel08272019103D

182197  0  0  0  0  0  0  0  0999 V2000
   -8.6511   16.2978    8.8090 C   0  0  0  0  0  0  0  0  0  0  0  0
   -8.8218   15.4498    9.8857 C   0  0  0  0  0  0  0  0  0  0  0  0
   -8.3945   14.1345    9.7779 C   0  0  0  0  0  0  0  0  0  0  0  0
   -7.7783   13.6454    8.6096 C   0  0  0  0  0  0  0  0  0  0  0  0
   -7.5337   14.4776    7.4969 C   0  0  0  0  0  0  0  0  0  0  0  0
   -8.0237   15.8352    7.6351 C   0  0  0  0  0  0  0  0  0  0  0  0
   -6.8226   13.8327    6.4070 C   0  0  0  0  0  0  0  0  0  0  0  0
   -6.4797   12.4195    6.3773 C   0  0  0  0  0  0  0  0  0  0  0  0
   -6.8099   11.6342    7.4823 C   0  0  0  0  0  0  0  0  0  0  0  0
   -7.4158   12.2891    8.5849 C   0  0  0  0  0  0  0  0  0  0  0  0
   -9.0441   17.3105    8.8795 H   0  0  0  0  0  0  0  0  0  0  0  0
   -9.3116   15.7977   10.7922 H   0  0  0  0  0  0  0  0  0  0  0  0
   -8.5633   13.4764   10.6311 H   0  0  0  0  0  0  0  0  0  0  0  0
   -7.6090   11.7135    9.4934 H   0  0  0  0  0  0  0  0  0  0  0  0
   -8.0260   16.8214    6.5261 C   0  0  0  0  0  0  0  0  0  0  0  0
   -6.2991   14.6511    5.2786 C   0  0  0  0  0  0  0  0  0  0  0  0
   -8.4821   16.5015    5.4356 O   0  0  0  0  0  0  0  0  0  0  0  0
   -7.5386   18.2215    6.8137 C   0  0  0  0  0  0  0  0  0  0  0  0
   -6.6243   14.3902    4.1243 O   0  0  0  0  0  0  0  0  0  0  0  0
   -5.2432   15.6810    5.5961 C   0  0  0  0  0  0  0  0  0  0  0  0
   -6.8682   18.2374    7.6779 H   0  0  0  0  0  0  0  0  0  0  0  0
   -8.3935   18.8769    7.0015 H   0  0  0  0  0  0  0  0  0  0  0  0
   -5.1590   15.8638    6.6704 H   0  0  0  0  0  0  0  0  0  0  0  0
   -5.4925   16.6225    5.0999 H   0  0  0  0  0  0  0  0  0  0  0  0
   -6.9769   18.5913    5.9515 H   0  0  0  0  0  0  0  0  0  0  0  0
   -4.2769   15.3215    5.2328 H   0  0  0  0  0  0  0  0  0  0  0  0
   -5.8172   11.7353    5.3135 C   0  0  0  0  0  0  0  0  0  0  0  0
   -5.4631   10.3580    5.3142 C   0  0  0  0  0  0  0  0  0  0  0  0
   -5.7714    9.5463    6.4091 C   0  0  0  0  0  0  0  0  0  0  0  0
   -6.5023   10.2249    7.4625 C   0  0  0  0  0  0  0  0  0  0  0  0
   -5.3040    8.1719    6.2953 C   0  0  0  0  0  0  0  0  0  0  0  0
   -4.5760    7.6257    5.1642 C   0  0  0  0  0  0  0  0  0  0  0  0
   -4.3104    8.4652    4.0855 C   0  0  0  0  0  0  0  0  0  0  0  0
   -4.7923    9.8084    4.1926 C   0  0  0  0  0  0  0  0  0  0  0  0
   -5.5549   12.3089    4.4208 H   0  0  0  0  0  0  0  0  0  0  0  0
   -4.6482   10.4805    3.3435 H   0  0  0  0  0  0  0  0  0  0  0  0
   -7.0884    9.4509    8.5807 C   0  0  0  0  0  0  0  0  0  0  0  0
   -5.4828    7.2375    7.4284 C   0  0  0  0  0  0  0  0  0  0  0  0
   -6.4070    9.1784    9.5597 O   0  0  0  0  0  0  0  0  0  0  0  0
   -8.5690    9.1600    8.5019 C   0  0  0  0  0  0  0  0  0  0  0  0
   -4.5321    7.0234    8.1725 O   0  0  0  0  0  0  0  0  0  0  0  0
   -6.7708    6.4640    7.4982 C   0  0  0  0  0  0  0  0  0  0  0  0
   -8.9223    9.2082    7.4680 H   0  0  0  0  0  0  0  0  0  0  0  0
   -9.1226    9.8857    9.1037 H   0  0  0  0  0  0  0  0  0  0  0  0
   -7.5411    6.9210    6.8713 H   0  0  0  0  0  0  0  0  0  0  0  0
   -7.1236    6.4442    8.5325 H   0  0  0  0  0  0  0  0  0  0  0  0
   -8.7658    8.1560    8.8845 H   0  0  0  0  0  0  0  0  0  0  0  0
   -6.5976    5.4420    7.1528 H   0  0  0  0  0  0  0  0  0  0  0  0
   -4.0999    6.2800    5.0536 C   0  0  0  0  0  0  0  0  0  0  0  0
   -3.4138    5.7319    3.9341 C   0  0  0  0  0  0  0  0  0  0  0  0
   -3.1203    6.5355    2.8288 C   0  0  0  0  0  0  0  0  0  0  0  0
   -3.5743    7.9205    2.9583 C   0  0  0  0  0  0  0  0  0  0  0  0
   -2.4110    5.8359    1.7574 C   0  0  0  0  0  0  0  0  0  0  0  0
   -2.0478    4.4245    1.7538 C   0  0  0  0  0  0  0  0  0  0  0  0
   -2.3588    3.6710    2.8798 C   0  0  0  0  0  0  0  0  0  0  0  0
   -3.0239    4.3630    3.9454 C   0  0  0  0  0  0  0  0  0  0  0  0
   -4.2725    5.6072    5.8986 H   0  0  0  0  0  0  0  0  0  0  0  0
   -3.2466    3.8007    4.8572 H   0  0  0  0  0  0  0  0  0  0  0  0
   -3.2927    8.8889    1.8742 C   0  0  0  0  0  0  0  0  0  0  0  0
   -1.9700    6.5793    0.5571 C   0  0  0  0  0  0  0  0  0  0  0  0
   -3.9917    8.8814    0.8697 O   0  0  0  0  0  0  0  0  0  0  0  0
   -2.2160    9.9184    2.1197 C   0  0  0  0  0  0  0  0  0  0  0  0
   -2.5763    6.4353   -0.4979 O   0  0  0  0  0  0  0  0  0  0  0  0
   -0.6618    7.3163    0.6565 C   0  0  0  0  0  0  0  0  0  0  0  0
   -1.5795    9.6279    2.9600 H   0  0  0  0  0  0  0  0  0  0  0  0
   -2.6696   10.8892    2.3340 H   0  0  0  0  0  0  0  0  0  0  0  0
   -0.4388    7.5890    1.6915 H   0  0  0  0  0  0  0  0  0  0  0  0
   -0.7160    8.2289    0.0580 H   0  0  0  0  0  0  0  0  0  0  0  0
   -1.5913   10.0128    1.2293 H   0  0  0  0  0  0  0  0  0  0  0  0
    0.1415    6.6802    0.2767 H   0  0  0  0  0  0  0  0  0  0  0  0
   -1.3954    3.7206    0.6840 C   0  0  0  0  0  0  0  0  0  0  0  0
   -1.0115    2.3462    0.6962 C   0  0  0  0  0  0  0  0  0  0  0  0
   -1.2727    1.5616    1.8206 C   0  0  0  0  0  0  0  0  0  0  0  0
   -1.9909    2.2640    2.8822 C   0  0  0  0  0  0  0  0  0  0  0  0
   -0.7839    0.1855    1.7209 C   0  0  0  0  0  0  0  0  0  0  0  0
   -0.1034   -0.3982    0.5728 C   0  0  0  0  0  0  0  0  0  0  0  0
    0.1157    0.4161   -0.5337 C   0  0  0  0  0  0  0  0  0  0  0  0
   -0.3607    1.7686   -0.4331 C   0  0  0  0  0  0  0  0  0  0  0  0
   -1.1762    4.2789   -0.2312 H   0  0  0  0  0  0  0  0  0  0  0  0
   -0.2230    2.4236   -1.2981 H   0  0  0  0  0  0  0  0  0  0  0  0
   -2.5016    1.5024    4.0417 C   0  0  0  0  0  0  0  0  0  0  0  0
   -0.8670   -0.6985    2.9032 C   0  0  0  0  0  0  0  0  0  0  0  0
   -1.8433    1.4443    5.0716 O   0  0  0  0  0  0  0  0  0  0  0  0
   -3.9083    0.9725    3.9320 C   0  0  0  0  0  0  0  0  0  0  0  0
    0.0711   -0.7117    3.6916 O   0  0  0  0  0  0  0  0  0  0  0  0
   -2.0305   -1.6476    2.9919 C   0  0  0  0  0  0  0  0  0  0  0  0
   -4.1612    0.7508    2.8917 H   0  0  0  0  0  0  0  0  0  0  0  0
   -4.6115    1.7104    4.3261 H   0  0  0  0  0  0  0  0  0  0  0  0
   -2.8270   -1.3605    2.3005 H   0  0  0  0  0  0  0  0  0  0  0  0
   -2.4263   -1.6373    4.0101 H   0  0  0  0  0  0  0  0  0  0  0  0
   -3.9952    0.0498    4.5108 H   0  0  0  0  0  0  0  0  0  0  0  0
   -1.6965   -2.6586    2.7459 H   0  0  0  0  0  0  0  0  0  0  0  0
    0.3664   -1.7527    0.4664 C   0  0  0  0  0  0  0  0  0  0  0  0
    1.0134   -2.3297   -0.6667 C   0  0  0  0  0  0  0  0  0  0  0  0
    1.2915   -1.5386   -1.7829 C   0  0  0  0  0  0  0  0  0  0  0  0
    0.8110   -0.1606   -1.6759 C   0  0  0  0  0  0  0  0  0  0  0  0
    2.0145   -2.2381   -2.8440 C   0  0  0  0  0  0  0  0  0  0  0  0
    2.3719   -3.6475   -2.8482 C   0  0  0  0  0  0  0  0  0  0  0  0
    2.0380   -4.4090   -1.7340 C   0  0  0  0  0  0  0  0  0  0  0  0
    1.3791   -3.7094   -0.6656 C   0  0  0  0  0  0  0  0  0  0  0  0
    0.2250   -2.4114    1.3273 H   0  0  0  0  0  0  0  0  0  0  0  0
    1.1423   -4.2758    0.2403 H   0  0  0  0  0  0  0  0  0  0  0  0
    0.9611    0.7555   -2.8265 C   0  0  0  0  0  0  0  0  0  0  0  0
    2.5127   -1.4782   -4.0101 C   0  0  0  0  0  0  0  0  0  0  0  0
    0.0324    0.8663   -3.6180 O   0  0  0  0  0  0  0  0  0  0  0  0
    2.1813    1.6350   -2.8600 C   0  0  0  0  0  0  0  0  0  0  0  0
    1.8129   -1.3692   -5.0078 O   0  0  0  0  0  0  0  0  0  0  0  0
    3.9435   -1.0070   -3.9513 C   0  0  0  0  0  0  0  0  0  0  0  0
    2.9686    1.2410   -2.2120 H   0  0  0  0  0  0  0  0  0  0  0  0
    1.9158    2.6398   -2.5220 H   0  0  0  0  0  0  0  0  0  0  0  0
    4.2638   -0.8613   -2.9161 H   0  0  0  0  0  0  0  0  0  0  0  0
    4.0338   -0.0533   -4.4767 H   0  0  0  0  0  0  0  0  0  0  0  0
    2.5603    1.6860   -3.8834 H   0  0  0  0  0  0  0  0  0  0  0  0
    4.5948   -1.7421   -4.4304 H   0  0  0  0  0  0  0  0  0  0  0  0
    3.0337   -4.3383   -3.9167 C   0  0  0  0  0  0  0  0  0  0  0  0
    3.4145   -5.7094   -3.9117 C   0  0  0  0  0  0  0  0  0  0  0  0
    3.1129   -6.5157   -2.8121 C   0  0  0  0  0  0  0  0  0  0  0  0
    2.3785   -5.8255   -1.7527 C   0  0  0  0  0  0  0  0  0  0  0  0
    3.5824   -7.8966   -2.9304 C   0  0  0  0  0  0  0  0  0  0  0  0
    4.3031   -8.4461   -4.0663 C   0  0  0  0  0  0  0  0  0  0  0  0
    4.5603   -7.6080   -5.1488 C   0  0  0  0  0  0  0  0  0  0  0  0
    4.0977   -6.2582   -5.0314 C   0  0  0  0  0  0  0  0  0  0  0  0
    3.2617   -3.7743   -4.8259 H   0  0  0  0  0  0  0  0  0  0  0  0
    4.2749   -5.5830   -5.8737 H   0  0  0  0  0  0  0  0  0  0  0  0
    1.8019   -6.6079   -0.6359 C   0  0  0  0  0  0  0  0  0  0  0  0
    3.4118   -8.8189   -1.7834 C   0  0  0  0  0  0  0  0  0  0  0  0
    2.2748   -6.5128    0.4899 O   0  0  0  0  0  0  0  0  0  0  0  0
    0.5134   -7.3338   -0.9230 C   0  0  0  0  0  0  0  0  0  0  0  0
    4.1431   -8.6879   -0.8099 O   0  0  0  0  0  0  0  0  0  0  0  0
    2.4071   -9.9370   -1.9109 C   0  0  0  0  0  0  0  0  0  0  0  0
    0.4596   -7.6478   -1.9689 H   0  0  0  0  0  0  0  0  0  0  0  0
   -0.3302   -6.6747   -0.7035 H   0  0  0  0  0  0  0  0  0  0  0  0
    1.7782   -9.8043   -2.7954 H   0  0  0  0  0  0  0  0  0  0  0  0
    1.7673   -9.9541   -1.0267 H   0  0  0  0  0  0  0  0  0  0  0  0
    0.4506   -8.2233   -0.2915 H   0  0  0  0  0  0  0  0  0  0  0  0
    2.9272  -10.8955   -1.9850 H   0  0  0  0  0  0  0  0  0  0  0  0
    4.7914   -9.7865   -4.1762 C   0  0  0  0  0  0  0  0  0  0  0  0
    5.4463  -10.3386   -5.3068 C   0  0  0  0  0  0  0  0  0  0  0  0
    5.7303   -9.5337   -6.4137 C   0  0  0  0  0  0  0  0  0  0  0  0
    5.2805   -8.1542   -6.2860 C   0  0  0  0  0  0  0  0  0  0  0  0
    6.4217  -10.2241   -7.4881 C   0  0  0  0  0  0  0  0  0  0  0  0
    6.7330  -11.6336   -7.5006 C   0  0  0  0  0  0  0  0  0  0  0  0
    6.4552  -12.4038   -6.3704 C   0  0  0  0  0  0  0  0  0  0  0  0
    5.8127  -11.7123   -5.2995 C   0  0  0  0  0  0  0  0  0  0  0  0
    4.6623  -10.4575   -3.3250 H   0  0  0  0  0  0  0  0  0  0  0  0
    5.5780  -12.2771   -4.3939 H   0  0  0  0  0  0  0  0  0  0  0  0
    5.5302   -7.1905   -7.3812 C   0  0  0  0  0  0  0  0  0  0  0  0
    6.9171   -9.4709   -8.6655 C   0  0  0  0  0  0  0  0  0  0  0  0
    4.6028   -6.8641   -8.1131 O   0  0  0  0  0  0  0  0  0  0  0  0
    6.8748   -6.5154   -7.4112 C   0  0  0  0  0  0  0  0  0  0  0  0
    6.1484   -9.1809   -9.5681 O   0  0  0  0  0  0  0  0  0  0  0  0
    8.4068   -9.2189   -8.7397 C   0  0  0  0  0  0  0  0  0  0  0  0
    7.6196   -7.0898   -6.8539 H   0  0  0  0  0  0  0  0  0  0  0  0
    6.7903   -5.5220   -6.9643 H   0  0  0  0  0  0  0  0  0  0  0  0
    8.8736   -9.3305   -7.7570 H   0  0  0  0  0  0  0  0  0  0  0  0
    8.5892   -8.2019   -9.0930 H   0  0  0  0  0  0  0  0  0  0  0  0
    7.2072   -6.4214   -8.4481 H   0  0  0  0  0  0  0  0  0  0  0  0
    8.8688   -9.9235   -9.4361 H   0  0  0  0  0  0  0  0  0  0  0  0
    7.2839  -12.3071   -8.6212 C   0  0  0  0  0  0  0  0  0  0  0  0
    7.6696  -13.6571   -8.6342 C   0  0  0  0  0  0  0  0  0  0  0  0
    7.5058  -14.4624   -7.4885 C   0  0  0  0  0  0  0  0  0  0  0  0
    6.8204  -13.8116   -6.3867 C   0  0  0  0  0  0  0  0  0  0  0  0
    8.0376  -15.8058   -7.6070 C   0  0  0  0  0  0  0  0  0  0  0  0
    8.6074  -16.2898   -8.8012 C   0  0  0  0  0  0  0  0  0  0  0  0
    8.6839  -15.4748   -9.9142 C   0  0  0  0  0  0  0  0  0  0  0  0
    8.2288  -14.1675   -9.8216 C   0  0  0  0  0  0  0  0  0  0  0  0
    7.4154  -11.7525   -9.5530 H   0  0  0  0  0  0  0  0  0  0  0  0
    9.1290  -15.8391  -10.8372 H   0  0  0  0  0  0  0  0  0  0  0  0
    8.3310  -13.5325  -10.7024 H   0  0  0  0  0  0  0  0  0  0  0  0
    9.0327  -17.2897   -8.8624 H   0  0  0  0  0  0  0  0  0  0  0  0
    6.3326  -14.6284   -5.2390 C   0  0  0  0  0  0  0  0  0  0  0  0
    8.1648  -16.7331   -6.4538 C   0  0  0  0  0  0  0  0  0  0  0  0
    6.6480  -14.3352   -4.0897 O   0  0  0  0  0  0  0  0  0  0  0  0
    5.3228  -15.7113   -5.5329 C   0  0  0  0  0  0  0  0  0  0  0  0
    8.6391  -16.3221   -5.4019 O   0  0  0  0  0  0  0  0  0  0  0  0
    7.7820  -18.1806   -6.6482 C   0  0  0  0  0  0  0  0  0  0  0  0
    5.2220  -15.9003   -6.6047 H   0  0  0  0  0  0  0  0  0  0  0  0
    4.3477  -15.3997   -5.1491 H   0  0  0  0  0  0  0  0  0  0  0  0
    7.0675  -18.2946   -7.4684 H   0  0  0  0  0  0  0  0  0  0  0  0
    7.3028  -18.5509   -5.7377 H   0  0  0  0  0  0  0  0  0  0  0  0
    5.6293  -16.6383   -5.0415 H   0  0  0  0  0  0  0  0  0  0  0  0
    8.6775  -18.7727   -6.8560 H   0  0  0  0  0  0  0  0  0  0  0  0
  1  2  2  0  0  0  0
  2  3  1  0  0  0  0
  2 12  1  0  0  0  0
  3 13  1  0  0  0  0
  4 10  1  0  0  0  0
  4  3  2  0  0  0  0
  5  4  1  0  0  0  0
  6  5  2  0  0  0  0
  6  1  1  0  0  0  0
  7  8  2  0  0  0  0
  7  5  1  0  0  0  0
  8  9  1  0  0  0  0
  8 27  1  0  0  0  0
  9 10  2  0  0  0  0
  9 30  1  0  0  0  0
 10 14  1  0  0  0  0
 11  1  1  0  0  0  0
 15  6  1  0  0  0  0
 16  7  1  0  0  0  0
 17 15  2  0  0  0  0
 18 15  1  0  0  0  0
 18 22  1  0  0  0  0
 18 21  1  0  0  0  0
 19 16  2  0  0  0  0
 20 16  1  0  0  0  0
 20 23  1  0  0  0  0
 24 20  1  0  0  0  0
 25 18  1  0  0  0  0
 26 20  1  0  0  0  0
 27 35  1  0  0  0  0
 28 34  1  0  0  0  0
 28 27  2  0  0  0  0
 29 28  1  0  0  0  0
 30 29  2  0  0  0  0
 31 32  2  0  0  0  0
 31 29  1  0  0  0  0
 32 33  1  0  0  0  0
 32 49  1  0  0  0  0
 33 34  2  0  0  0  0
 33 52  1  0  0  0  0
 34 36  1  0  0  0  0
 37 30  1  0  0  0  0
 38 31  1  0  0  0  0
 39 37  2  0  0  0  0
 40 37  1  0  0  0  0
 40 44  1  0  0  0  0
 40 43  1  0  0  0  0
 41 38  2  0  0  0  0
 42 38  1  0  0  0  0
 42 45  1  0  0  0  0
 46 42  1  0  0  0  0
 47 40  1  0  0  0  0
 48 42  1  0  0  0  0
 49 57  1  0  0  0  0
 50 56  1  0  0  0  0
 50 49  2  0  0  0  0
 51 52  2  0  0  0  0
 51 50  1  0  0  0  0
 53 54  2  0  0  0  0
 53 51  1  0  0  0  0
 54 55  1  0  0  0  0
 55 74  1  0  0  0  0
 55 56  2  0  0  0  0
 56 58  1  0  0  0  0
 59 62  1  0  0  0  0
 59 52  1  0  0  0  0
 60 64  1  0  0  0  0
 60 53  1  0  0  0  0
 61 59  2  0  0  0  0
 62 66  1  0  0  0  0
 62 65  1  0  0  0  0
 63 60  2  0  0  0  0
 64 67  1  0  0  0  0
 68 64  1  0  0  0  0
 69 62  1  0  0  0  0
 70 64  1  0  0  0  0
 71 72  2  0  0  0  0
 71 54  1  0  0  0  0
 72 73  1  0  0  0  0
 73 74  2  0  0  0  0
 74 81  1  0  0  0  0
 75 73  1  0  0  0  0
 75 82  1  0  0  0  0
 76 75  2  0  0  0  0
 76 93  1  0  0  0  0
 77 78  2  0  0  0  0
 77 76  1  0  0  0  0
 77 96  1  0  0  0  0
 78 72  1  0  0  0  0
 79 71  1  0  0  0  0
 80 78  1  0  0  0  0
 81 83  2  0  0  0  0
 82 85  2  0  0  0  0
 84 88  1  0  0  0  0
 84 81  1  0  0  0  0
 84 91  1  0  0  0  0
 86 82  1  0  0  0  0
 86 90  1  0  0  0  0
 87 84  1  0  0  0  0
 89 86  1  0  0  0  0
 92 86  1  0  0  0  0
 93101  1  0  0  0  0
 94100  1  0  0  0  0
 94 93  2  0  0  0  0
 95 96  2  0  0  0  0
 95 94  1  0  0  0  0
 97 98  2  0  0  0  0
 97 95  1  0  0  0  0
 98 99  1  0  0  0  0
 99118  1  0  0  0  0
 99100  2  0  0  0  0
100102  1  0  0  0  0
103106  1  0  0  0  0
103 96  1  0  0  0  0
104108  1  0  0  0  0
104 97  1  0  0  0  0
105103  2  0  0  0  0
106110  1  0  0  0  0
106109  1  0  0  0  0
107104  2  0  0  0  0
108111  1  0  0  0  0
112108  1  0  0  0  0
113106  1  0  0  0  0
114108  1  0  0  0  0
115116  2  0  0  0  0
115 98  1  0  0  0  0
116117  1  0  0  0  0
117118  2  0  0  0  0
118125  1  0  0  0  0
119117  1  0  0  0  0
119126  1  0  0  0  0
120119  2  0  0  0  0
121122  2  0  0  0  0
121120  1  0  0  0  0
122116  1  0  0  0  0
123115  1  0  0  0  0
124122  1  0  0  0  0
125127  2  0  0  0  0
126130  1  0  0  0  0
126129  2  0  0  0  0
128125  1  0  0  0  0
128132  1  0  0  0  0
128135  1  0  0  0  0
130134  1  0  0  0  0
131128  1  0  0  0  0
133130  1  0  0  0  0
136130  1  0  0  0  0
137120  1  0  0  0  0
137145  1  0  0  0  0
138144  1  0  0  0  0
138137  2  0  0  0  0
139140  2  0  0  0  0
139138  1  0  0  0  0
140121  1  0  0  0  0
141142  2  0  0  0  0
141139  1  0  0  0  0
142143  1  0  0  0  0
143162  1  0  0  0  0
143144  2  0  0  0  0
144146  1  0  0  0  0
147150  1  0  0  0  0
147140  1  0  0  0  0
148152  1  0  0  0  0
148141  1  0  0  0  0
149147  2  0  0  0  0
150154  1  0  0  0  0
150153  1  0  0  0  0
151148  2  0  0  0  0
152155  1  0  0  0  0
156152  1  0  0  0  0
157150  1  0  0  0  0
158152  1  0  0  0  0
159160  2  0  0  0  0
159142  1  0  0  0  0
160161  1  0  0  0  0
161162  2  0  0  0  0
162171  1  0  0  0  0
163161  1  0  0  0  0
163172  1  0  0  0  0
164163  2  0  0  0  0
165166  2  0  0  0  0
165164  1  0  0  0  0
166160  1  0  0  0  0
167159  1  0  0  0  0
168165  1  0  0  0  0
169166  1  0  0  0  0
170164  1  0  0  0  0
171173  2  0  0  0  0
172175  2  0  0  0  0
174171  1  0  0  0  0
174178  1  0  0  0  0
174181  1  0  0  0  0
176172  1  0  0  0  0
176180  1  0  0  0  0
177174  1  0  0  0  0
179176  1  0  0  0  0
182176  1  0  0  0  0
M  END
